Mass Spectrum: Tetrachloroethylene
Formula: C2 Cl4
CAS: 127-18-4
Molecular weight: 164
Origin: NIST Mass Spectrometry Data Center
m/z	RELATIVE INTENSITY
12	20
24	140
35	701
36	10
37	230
47	1742
48	20
49	591
59	1321
60	30
61	440
62	10
64	20
65	20
70	30
72	20
82	831
83	140
84	550
85	20
86	80
94	3533
95	80
96	2322
97	50
98	380
117	80
119	80
121	20
129	7176
130	180
131	7136
132	150
133	2282
134	50
135	240
164	8077
165	210
166	9999
167	230
168	5015
169	110
170	1091
171	20
172	80
