Infrared Spectrum: AMMONIA
Formula: H3 N
CAS: 7664-41-7
State: GAS
Class: COBLENTZ
Instrument: DOW KBr FOREPRISM
Instrument parameters: GRATING CHANGED AT 5.0, 7.5, 15.0 MICRON
Sampling: TRANSMISSION
Path length: 5 CM
Resolution: 4
Origin: DOW CHEMICAL COMPANY
1/CM	TRANSMITTANCE
453.094	0.899
461.511	0.9
469.929	0.9
478.346	0.903
486.763	0.908
495.18	0.918
503.598	0.91
512.015	0.916
520.432	0.912
528.849	0.918
537.267	0.905
545.684	0.903
554.101	0.893
562.518	0.902
570.936	0.904
579.353	0.908
587.77	0.909
596.188	0.91
604.605	0.912
613.022	0.907
621.439	0.894
629.857	0.866
638.274	0.895
646.691	0.91
655.108	0.908
663.526	0.91
671.943	0.908
680.36	0.907
688.777	0.903
697.195	0.899
705.612	0.891
714.029	0.871
722.447	0.886
730.864	0.858
739.281	0.8181
747.698	0.802
756.116	0.842
764.533	0.854
772.95	0.874
781.367	0.666
789.785	0.6062
798.202	0.6813
806.619	0.8631
815.036	0.7162
823.454	0.879
831.871	0.852
840.288	0.879
848.706	0.3441
857.123	0.832
865.54	0.868
873.957	0.82
882.375	0.882
890.792	0.3812
899.209	0.881
907.626	0.5613
916.044	0.798
924.461	0.418
932.878	0.2119
941.295	0.851
949.713	0.548
958.13	0.557
966.547	0.021
974.965	0.871
983.382	0.881
991.799	0.3891
1000.22	0.879
1008.63	0.8186
1017.05	0.872
1025.47	0.823
1033.89	0.265
1042.3	0.848
1050.72	0.736
1059.14	0.86
1067.55	0.5775
1075.97	0.3982
1084.39	0.7561
1092.81	0.744
1101.22	0.711
1109.64	0.837
1118.06	0.6192
1126.48	0.861
1134.89	0.8339
1143.31	0.8418
1151.73	0.866
1160.14	0.575
1168.56	0.886
1176.98	0.858
1185.4	0.888
1193.81	0.889
1202.23	0.891
1210.65	0.894
1219.07	0.893
1227.48	0.899
1235.9	0.8989
1244.32	0.894
1252.73	0.886
1261.15	0.89
1269.57	0.885
1277.99	0.886
1286.4	0.884
1294.82	0.879
1303.24	0.877
1311.66	0.876
1320.07	0.877
1328.49	0.876
1336.91	0.879
1345.32	0.877
1353.74	0.877
1362.16	0.877
1370.58	0.879
1378.99	0.874
1387.41	0.871
1395.83	0.872
1404.25	0.87
1412.66	0.868
1421.08	0.865
1429.5	0.867
1437.91	0.86
1446.33	0.865
1454.75	0.844
1463.17	0.863
1471.58	0.8151
1480	0.852
1488.42	0.6571
1496.84	0.788
1505.25	0.8009
1513.67	0.797
1522.09	0.852
1530.5	0.768
1538.92	0.824
1547.34	0.6572
1555.76	0.756
1564.17	0.582
1572.59	0.857
1581.01	0.6762
1589.43	0.842
1597.84	0.708
1606.26	0.825
1614.68	0.745
1623.09	0.6089
1631.51	0.6421
1639.93	0.7949
1648.35	0.727
1656.76	0.828
1665.18	0.844
1673.6	0.846
1682.01	0.833
1690.43	0.844
1698.85	0.763
1707.27	0.8099
1715.68	0.7251
1724.1	0.7539
1732.52	0.7909
1740.94	0.744
1749.35	0.838
1757.77	0.81
1766.19	0.773
1774.6	0.812
1783.02	0.832
1791.44	0.824
1799.86	0.83
1808.27	0.837
1816.69	0.837
1825.11	0.847
1833.53	0.848
1841.94	0.847
1850.36	0.849
1858.78	0.851
1867.19	0.851
1875.61	0.851
1884.03	0.852
1892.45	0.852
1900.86	0.852
1909.28	0.852
1917.7	0.851
1926.12	0.851
1934.53	0.851
1942.95	0.851
1951.37	0.851
1959.78	0.851
1968.2	0.851
1976.62	0.851
1985.04	0.851
1993.45	0.851
2001.87	0.849
2010.29	0.849
2018.71	0.849
2027.12	0.849
2035.54	0.849
2043.96	0.849
2052.37	0.849
2060.79	0.849
2069.21	0.851
2077.63	0.852
2086.04	0.852
2094.46	0.852
2102.88	0.852
2111.3	0.852
2119.71	0.852
2128.13	0.852
2136.55	0.852
2144.96	0.852
2153.38	0.852
2161.8	0.852
2170.22	0.852
2178.63	0.852
2187.05	0.852
2195.47	0.852
2203.89	0.853
2212.3	0.853
2220.72	0.853
2229.14	0.853
2237.55	0.853
2245.97	0.853
2254.39	0.853
2262.81	0.853
2271.22	0.853
2279.64	0.853
2288.06	0.853
2296.48	0.853
2304.89	0.854
2313.31	0.8592
2321.73	0.8648
2330.14	0.8674
2338.56	0.87
2346.98	0.871
2355.4	0.871
2363.81	0.8692
2372.23	0.866
2380.65	0.8606
2389.07	0.857
2397.48	0.8553
2405.9	0.854
2414.32	0.854
2422.73	0.854
2431.15	0.854
2439.57	0.854
2447.99	0.854
2456.4	0.854
2464.82	0.854
2473.24	0.854
2481.66	0.856
2490.07	0.856
2498.49	0.856
2506.91	0.856
2515.32	0.856
2523.74	0.856
2532.16	0.856
2540.58	0.856
2548.99	0.856
2557.41	0.856
2565.83	0.856
2574.25	0.856
2582.66	0.856
2591.08	0.856
2599.5	0.856
2607.91	0.856
2616.33	0.857
2624.75	0.857
2633.17	0.857
2641.58	0.857
2650	0.857
2658.42	0.857
2666.84	0.857
2675.25	0.857
2683.67	0.857
2692.09	0.857
2700.5	0.857
2708.92	0.857
2717.34	0.8567
2725.76	0.856
2734.17	0.856
2742.59	0.856
2751.01	0.856
2759.43	0.856
2767.84	0.856
2776.26	0.856
2784.68	0.856
2793.09	0.856
2801.51	0.856
2809.93	0.856
2818.35	0.856
2826.76	0.856
2835.18	0.856
2843.6	0.857
2852.02	0.856
2860.43	0.8533
2868.85	0.849
2877.27	0.847
2885.68	0.846
2894.1	0.847
2902.52	0.8482
2910.94	0.851
2919.35	0.8478
2927.77	0.8393
2936.19	0.835
2944.61	0.834
2953.02	0.83
2961.44	0.829
2969.86	0.829
2978.27	0.832
2986.69	0.837
2995.11	0.8433
3003.53	0.8495
3011.94	0.852
3020.36	0.849
3028.78	0.848
3037.19	0.848
3045.61	0.849
3054.03	0.851
3062.45	0.8516
3070.86	0.852
3079.28	0.852
3087.7	0.852
3096.12	0.851
3104.53	0.8507
3112.95	0.849
3121.37	0.848
3129.78	0.848
3138.2	0.8469
3146.62	0.844
3155.04	0.8439
3163.45	0.844
3171.87	0.8429
3180.29	0.8395
3188.71	0.8439
3197.12	0.8278
3205.54	0.842
3213.96	0.8259
3222.37	0.8344
3230.79	0.8402
3239.21	0.8182
3247.63	0.8424
3256.04	0.806
3264.46	0.84
3272.88	0.8292
3281.3	0.829
3289.71	0.8368
3298.13	0.81
3306.55	0.834
3314.96	0.8297
3323.38	0.8188
3331.8	0.6691
3340.22	0.7733
3348.63	0.8236
3357.05	0.821
3365.47	0.8235
3373.89	0.8137
3382.3	0.8148
3390.72	0.8201
3399.14	0.8076
3407.55	0.825
3415.97	0.7487
3424.39	0.833
3432.81	0.7518
3441.22	0.828
3449.64	0.793
3458.06	0.826
3466.48	0.8325
3474.89	0.834
3483.31	0.8192
3491.73	0.824
3500.14	0.833
3508.56	0.824
3516.98	0.84
3525.4	0.838
3533.81	0.842
3542.23	0.846
3550.65	0.847
3559.07	0.849
3567.48	0.853
3575.9	0.854
3584.32	0.856
3592.73	0.856
3601.15	0.857
3609.57	0.857
3617.99	0.856
3626.4	0.856
3634.82	0.8551
3643.24	0.8559
3651.66	0.857
3660.07	0.8579
3668.49	0.8586
3676.91	0.854
3685.32	0.8501
3693.74	0.856
3702.16	0.853
3710.58	0.8539
3718.99	0.8549
3727.41	0.857
3735.83	0.858
3744.25	0.857
3752.66	0.853
3761.08	0.853
3769.5	0.853
3777.91	0.853
3786.33	0.853
3794.75	0.853
