Infrared Spectrum: Benzene
Formula: C6 H6
CAS: 71-43-2
State: GAS
Class: COBLENTZ
Instrument: DOW KBr FOREPRISM-GRATING
Instrument parameters: GRATING CHANGED AT 5.0, 7.5, 15.0 MICRON
Sampling: TRANSMISSION
Path length: 5 CM
Resolution: 2
Origin: DOW CHEMICAL COMPANY
1/CM	TRANSMITTANCE
452	0.8787
461	0.8803
470	0.88
479	0.8779
488	0.8751
497	0.8726
506	0.8703
515	0.869
524	0.8694
533	0.8711
542	0.8729
551	0.876
560	0.8795
569	0.8818
578	0.8812
587	0.8808
596	0.8827
605	0.8839
614	0.8846
623	0.8868
632	0.8751
641	0.7561
650	0.277
659	0.0644
668	0.1816
677	0.2881
686	0.0403
695	0.1119
704	0.554
713	0.8326
722	0.8459
731	0.8483
740	0.8578
749	0.857
758	0.8547
767	0.8517
776	0.8543
785	0.8491
794	0.8545
803	0.858
812	0.8629
821	0.8626
830	0.8618
839	0.8616
848	0.8617
857	0.8618
866	0.8621
875	0.8629
884	0.864
893	0.8654
902	0.867
911	0.868
920	0.8689
929	0.8698
938	0.8707
947	0.8715
956	0.872
965	0.8726
974	0.8729
983	0.8714
992	0.8663
1001	0.8573
1010	0.8332
1019	0.7082
1028	0.6624
1037	0.5188
1046	0.7385
1055	0.6848
1064	0.8377
1073	0.868
1082	0.874
1091	0.8757
1100	0.8783
1109	0.8817
1118	0.8845
1127	0.8833
1136	0.8786
1145	0.875
1154	0.8793
1163	0.8798
1172	0.878
1181	0.8701
1190	0.8791
1199	0.8786
1208	0.8768
1217	0.8755
1226	0.876
1235	0.8683
1244	0.8597
1253	0.8554
1262	0.8584
1271	0.8641
1280	0.8623
1289	0.8601
1298	0.8593
1307	0.8597
1316	0.8607
1325	0.861
1334	0.8588
1343	0.8553
1352	0.8584
1361	0.8658
1370	0.8462
1379	0.8142
1388	0.8069
1397	0.8153
1406	0.8377
1415	0.8522
1424	0.8539
1433	0.8538
1442	0.8455
1451	0.8326
1460	0.7861
1469	0.574
1478	0.4598
1487	0.3273
1496	0.4945
1505	0.5855
1514	0.725
1523	0.7604
1532	0.7565
1541	0.8465
1550	0.8536
1559	0.8643
1568	0.8569
1577	0.8573
1586	0.8567
1595	0.8552
1604	0.8539
1613	0.8524
1622	0.8497
1631	0.8506
1640	0.8509
1649	0.8544
1658	0.852
1667	0.8482
1676	0.8489
1685	0.8548
1694	0.8603
1703	0.8631
1712	0.8584
1721	0.8649
1730	0.8596
1739	0.8554
1748	0.8514
1757	0.8352
1766	0.8447
1775	0.8397
1784	0.8249
1793	0.7688
1802	0.6285
1811	0.6359
1820	0.6247
1829	0.7304
1838	0.8454
1847	0.8565
1856	0.8524
1865	0.8499
1874	0.8496
1883	0.8497
1892	0.8514
1901	0.8542
1910	0.8543
1919	0.8485
1928	0.838
1937	0.7776
1946	0.7005
1955	0.7031
1964	0.6937
1973	0.7885
1982	0.8502
1991	0.8515
2000	0.8523
2009	0.8505
2018	0.8512
2027	0.8521
2036	0.8543
2045	0.8577
2054	0.8605
2063	0.8618
2072	0.8616
2081	0.8616
2090	0.8616
2099	0.8617
2108	0.8614
2117	0.8612
2126	0.8609
2135	0.8606
2144	0.8601
2153	0.8596
2162	0.8591
2171	0.8585
2180	0.858
2189	0.8572
2198	0.855
2207	0.8457
2216	0.8412
2225	0.8455
2234	0.8599
2243	0.8622
2252	0.8622
2261	0.8616
2270	0.8609
2279	0.8601
2288	0.8592
2297	0.8582
2306	0.8569
2315	0.8473
2324	0.8449
2333	0.8469
2342	0.8533
2351	0.8721
2360	0.8778
2369	0.8735
2378	0.8643
2387	0.8551
2396	0.8563
2405	0.8588
2414	0.8605
2423	0.862
2432	0.8636
2441	0.865
2450	0.8667
2459	0.8681
2468	0.869
2477	0.8696
2486	0.8703
2495	0.8705
2504	0.8706
2513	0.8698
2522	0.869
2531	0.8679
2540	0.8667
2549	0.8654
2558	0.864
2567	0.8626
2576	0.8612
2585	0.8596
2594	0.8569
2603	0.8541
2612	0.8523
2621	0.8572
2630	0.8604
2639	0.86
2648	0.859
2657	0.8586
2666	0.8594
2675	0.8666
2684	0.8679
2693	0.8687
2702	0.869
2711	0.869
2720	0.8688
2729	0.8686
2738	0.8685
2747	0.8674
2756	0.8665
2765	0.8654
2774	0.863
2783	0.8605
2792	0.8566
2801	0.8518
2810	0.8459
2819	0.8399
2828	0.8366
2837	0.8342
2846	0.8264
2855	0.7934
2864	0.7628
2873	0.752
2882	0.7475
2891	0.7548
2900	0.7693
2909	0.7778
2918	0.7378
2927	0.6679
2936	0.6655
2945	0.7021
2954	0.7323
2963	0.685
2972	0.6701
2981	0.8144
2990	0.8412
2999	0.8477
3008	0.8433
3017	0.7912
3026	0.5475
3035	0.1387
3044	0.1057
3053	0.1188
3062	0.2411
3071	0.3121
3080	0.3399
3089	0.2134
3098	0.25
3107	0.2383
3116	0.4032
3125	0.8248
3134	0.8587
3143	0.8647
3152	0.866
3161	0.8667
3170	0.8673
3179	0.8676
3188	0.868
3197	0.8682
3206	0.8685
3215	0.8688
3224	0.8692
3233	0.8696
3242	0.8702
3251	0.8707
3260	0.871
3269	0.8709
3278	0.8709
3287	0.8712
3296	0.8715
3305	0.8718
3314	0.8722
3323	0.8726
3332	0.8732
3341	0.8736
3350	0.8739
3359	0.874
3368	0.8738
3377	0.8734
3386	0.8732
3395	0.8731
3404	0.8722
3413	0.8712
3422	0.8701
3431	0.8689
3440	0.8679
3449	0.8684
3458	0.8696
3467	0.87
3476	0.8701
3485	0.8704
3494	0.872
3503	0.8725
3512	0.8722
3521	0.8713
3530	0.8705
3539	0.87
3548	0.8693
3557	0.8686
3566	0.8683
3575	0.8679
3584	0.8673
3593	0.8663
3602	0.8641
3611	0.861
3620	0.8566
3629	0.852
3638	0.8506
3647	0.8555
3656	0.8641
3665	0.8603
3674	0.8507
3683	0.8484
3692	0.853
3701	0.8642
3710	0.8664
3719	0.8661
3728	0.8657
3737	0.8655
3746	0.8655
3755	0.8657
3764	0.8661
3773	0.8666
3782	0.8674
3791	0.8683
