Infrared Spectrum: Butadiene
Formula: C4 H6
CAS: 106-99-0
State: GAS
Class: COBLENTZ
Instrument: DOW KBr FOREPRISM-GRATING
Instrument parameters: GRATING CHANGED AT 5.0, 7.5, 15.0 MICRON
Sampling: TRANSMISSION
Path length: 5 CM
Resolution: 2
Origin: DOW CHEMICAL COMPANY
1/CM	TRANSMITTANCE
457	0.8827
466	0.8697
475	0.8451
484	0.8109
493	0.7737
502	0.7377
511	0.6969
520	0.659
529	0.5292
538	0.6793
547	0.6699
556	0.734
565	0.8019
574	0.8572
583	0.8907
592	0.9118
601	0.921
610	0.9268
619	0.9302
628	0.9294
637	0.9268
646	0.9207
655	0.9109
664	0.9121
673	0.8658
682	0.9101
691	0.9095
700	0.9134
709	0.9181
718	0.9193
727	0.9159
736	0.9106
745	0.9073
754	0.9059
763	0.9059
772	0.9077
781	0.909
790	0.9083
799	0.9059
808	0.9021
817	0.8966
826	0.8855
835	0.863
844	0.8163
853	0.7059
862	0.5724
871	0.3343
880	0.2372
889	0.1593
898	0.1311
907	0.0284
916	0.1084
925	0.0919
934	0.1338
943	0.2953
952	0.4983
961	0.5988
970	0.6145
979	0.5382
988	0.3652
997	0.2131
1006	0.2673
1015	0.0914
1024	0.3161
1033	0.3444
1042	0.4091
1051	0.5243
1060	0.6389
1069	0.706
1078	0.7832
1087	0.8576
1096	0.8918
1105	0.9109
1114	0.9193
1123	0.9202
1132	0.9186
1141	0.9143
1150	0.9158
1159	0.9178
1168	0.9187
1177	0.9157
1186	0.9206
1195	0.9253
1204	0.9241
1213	0.9217
1222	0.918
1231	0.9125
1240	0.8964
1249	0.8702
1258	0.8523
1267	0.8476
1276	0.8431
1285	0.8093
1294	0.8519
1303	0.8382
1312	0.8395
1321	0.8625
1330	0.8719
1339	0.8712
1348	0.8684
1357	0.8542
1366	0.7754
1375	0.6668
1384	0.6372
1393	0.6949
1402	0.8272
1411	0.843
1420	0.8391
1429	0.8476
1438	0.8471
1447	0.8476
1456	0.8625
1465	0.8593
1474	0.8442
1483	0.799
1492	0.8433
1501	0.842
1510	0.8634
1519	0.8756
1528	0.8842
1537	0.8885
1546	0.8821
1555	0.8648
1564	0.8327
1573	0.7302
1582	0.3784
1591	0.1968
1600	0.3119
1609	0.1662
1618	0.6622
1627	0.849
1636	0.8508
1645	0.848
1654	0.8631
1663	0.8652
1672	0.8706
1681	0.8792
1690	0.8851
1699	0.885
1708	0.8806
1717	0.8741
1726	0.8656
1735	0.8549
1744	0.8412
1753	0.8227
1762	0.8365
1771	0.8409
1780	0.8411
1789	0.8241
1798	0.7768
1807	0.5022
1816	0.4481
1825	0.5271
1834	0.4451
1843	0.8116
1852	0.856
1861	0.856
1870	0.8551
1879	0.8523
1888	0.8555
1897	0.8634
1906	0.8603
1915	0.8605
1924	0.8622
1933	0.8617
1942	0.8588
1951	0.8483
1960	0.8349
1969	0.8425
1978	0.8447
1987	0.8539
1996	0.8691
2005	0.8744
2014	0.8765
2023	0.8778
2032	0.8782
2041	0.8785
2050	0.8781
2059	0.8777
2068	0.8774
2077	0.877
2086	0.8768
2095	0.8763
2104	0.8755
2113	0.8762
2122	0.878
2131	0.8806
2140	0.882
2149	0.8813
2158	0.8807
2167	0.8798
2176	0.879
2185	0.8783
2194	0.8781
2203	0.8778
2212	0.8773
2221	0.8762
2230	0.8751
2239	0.8728
2248	0.8694
2257	0.8671
2266	0.865
2275	0.8647
2284	0.8657
2293	0.8666
2302	0.8638
2311	0.8552
2320	0.8404
2329	0.8241
2338	0.8114
2347	0.8168
2356	0.8305
2365	0.7953
2374	0.8255
2383	0.8666
2392	0.8783
2401	0.8793
2410	0.8799
2419	0.8788
2428	0.8775
2437	0.8764
2446	0.8752
2455	0.8737
2464	0.8713
2473	0.8683
2482	0.8634
2491	0.8649
2500	0.8653
2509	0.8717
2518	0.8771
2527	0.8791
2536	0.8788
2545	0.8785
2554	0.878
2563	0.8779
2572	0.8778
2581	0.8773
2590	0.8777
2599	0.8793
2608	0.881
2617	0.8813
2626	0.8811
2635	0.8807
2644	0.8805
2653	0.8805
2662	0.8803
2671	0.88
2680	0.8798
2689	0.8794
2698	0.8791
2707	0.8787
2716	0.8787
2725	0.8789
2734	0.8813
2743	0.8828
2752	0.8828
2761	0.8829
2770	0.8832
2779	0.883
2788	0.8828
2797	0.8823
2806	0.8819
2815	0.8811
2824	0.8793
2833	0.8752
2842	0.8711
2851	0.8676
2860	0.8646
2869	0.8635
2878	0.859
2887	0.8495
2896	0.8395
2905	0.8267
2914	0.812
2923	0.7965
2932	0.7765
2941	0.7625
2950	0.7507
2959	0.7099
2968	0.6327
2977	0.4847
2986	0.5081
2995	0.3765
3004	0.375
3013	0.4316
3022	0.4022
3031	0.4466
3040	0.4192
3049	0.3918
3058	0.41
3067	0.3338
3076	0.3435
3085	0.2623
3094	0.2437
3103	0.3441
3112	0.2193
3121	0.3809
3130	0.5391
3139	0.6613
3148	0.7595
3157	0.815
3166	0.8444
3175	0.858
3184	0.8638
3193	0.8663
3202	0.8667
3211	0.8659
3220	0.865
3229	0.8639
3238	0.8637
3247	0.8664
3256	0.8693
3265	0.8706
3274	0.8708
3283	0.87
3292	0.8677
3301	0.8662
3310	0.866
3319	0.8671
3328	0.868
3337	0.8679
3346	0.8675
3355	0.8665
3364	0.8654
3373	0.8636
3382	0.8618
3391	0.8599
3400	0.8582
3409	0.8598
3418	0.8629
3427	0.8661
3436	0.8668
3445	0.8674
3454	0.8681
3463	0.8687
3472	0.8694
3481	0.8698
3490	0.8699
3499	0.87
3508	0.8704
3517	0.8707
3526	0.8715
3535	0.8726
3544	0.8736
3553	0.8742
3562	0.8748
3571	0.8747
3580	0.8742
3589	0.873
3598	0.8713
3607	0.8712
3616	0.8731
3625	0.8762
3634	0.8785
3643	0.8798
3652	0.8804
3661	0.8804
3670	0.8768
3679	0.873
3688	0.8731
3697	0.875
3706	0.8756
3715	0.8751
3724	0.8742
3733	0.8769
3742	0.8798
3751	0.8794
3760	0.8787
3769	0.8786
3778	0.8789
3787	0.8791
3796	0.8785
