Infrared Spectrum: 2-Butene, cis-
Formula: C4 H8
CAS: 590-18-1
State: GAS (150 mmHg, N2 ADDED, TOTAL PRESSURE 600 mmHg)
Class: COBLENTZ
Instrument: DOW KBr FOREPRISM-GRATING
Instrument parameters: GRATING CHANGED AT 5.0, 7.5, 15.0 MICRON
Sampling: TRANSMISSION
Path length: 5 CM
Resolution: 2
Origin: DOW CHEMICAL COMPANY
1/CM	TRANSMITTANCE
460	0.8958
469	0.9001
478	0.9113
487	0.9183
496	0.9209
505	0.9224
514	0.9213
523	0.9195
532	0.9136
541	0.9003
550	0.8705
559	0.7932
568	0.7091
577	0.6917
586	0.6544
595	0.7663
604	0.8815
613	0.8894
622	0.8517
631	0.7174
640	0.4662
649	0.3018
658	0.1642
667	0.0585
676	0.0501
685	0.1306
694	0.1914
703	0.3681
712	0.6274
721	0.7864
730	0.8736
739	0.8818
748	0.8791
757	0.876
766	0.874
775	0.8746
784	0.8775
793	0.8811
802	0.8831
811	0.8849
820	0.8861
829	0.8831
838	0.876
847	0.8654
856	0.8504
865	0.8352
874	0.8308
883	0.8337
892	0.8465
901	0.8536
910	0.8072
919	0.8435
928	0.8285
937	0.8086
946	0.7694
955	0.6188
964	0.3915
973	0.3909
982	0.3792
991	0.4367
1000	0.6888
1009	0.7398
1018	0.7189
1027	0.7111
1036	0.6527
1045	0.7172
1054	0.7399
1063	0.7786
1072	0.8107
1081	0.8371
1090	0.8687
1099	0.8735
1108	0.8715
1117	0.862
1126	0.8503
1135	0.8538
1144	0.8597
1153	0.8751
1162	0.8867
1171	0.8911
1180	0.884
1189	0.8949
1198	0.8961
1207	0.8975
1216	0.8994
1225	0.8987
1234	0.8963
1243	0.8871
1252	0.8849
1261	0.8841
1270	0.8822
1279	0.8801
1288	0.8738
1297	0.8655
1306	0.8547
1315	0.841
1324	0.8213
1333	0.7853
1342	0.7338
1351	0.6623
1360	0.6047
1369	0.5546
1378	0.4807
1387	0.4374
1396	0.2867
1405	0.3278
1414	0.3728
1423	0.3227
1432	0.4554
1441	0.4484
1450	0.358
1459	0.4614
1468	0.4979
1477	0.5341
1486	0.6179
1495	0.6732
1504	0.692
1513	0.6787
1522	0.6578
1531	0.6409
1540	0.6512
1549	0.6664
1558	0.7118
1567	0.7514
1576	0.8034
1585	0.8286
1594	0.8375
1603	0.8188
1612	0.7709
1621	0.7229
1630	0.6749
1639	0.6406
1648	0.5826
1657	0.5728
1666	0.6069
1675	0.5758
1684	0.6823
1693	0.7495
1702	0.7835
1711	0.8005
1720	0.8221
1729	0.853
1738	0.8733
1747	0.8762
1756	0.8741
1765	0.877
1774	0.8773
1783	0.877
1792	0.8767
1801	0.874
1810	0.8688
1819	0.8665
1828	0.8641
1837	0.8644
1846	0.8697
1855	0.8723
1864	0.8775
1873	0.8778
1882	0.8743
1891	0.8731
1900	0.8688
1909	0.8685
1918	0.8595
1927	0.8529
1936	0.8483
1945	0.8462
1954	0.8457
1963	0.8425
1972	0.8305
1981	0.8128
1990	0.7968
1999	0.794
2008	0.7902
2017	0.8118
2026	0.8317
2035	0.8468
2044	0.8507
2053	0.8519
2062	0.8523
2071	0.8525
2080	0.8528
2089	0.8532
2098	0.8536
2107	0.8538
2116	0.8544
2125	0.855
2134	0.8554
2143	0.8557
2152	0.8561
2161	0.8564
2170	0.8567
2179	0.857
2188	0.857
2197	0.8569
2206	0.8546
2215	0.8518
2224	0.8489
2233	0.8472
2242	0.8471
2251	0.8494
2260	0.8532
2269	0.8519
2278	0.8527
2287	0.8536
2296	0.8546
2305	0.8559
2314	0.8572
2323	0.8582
2332	0.8586
2341	0.8564
2350	0.8502
2359	0.8547
2368	0.8541
2377	0.8466
2386	0.8409
2395	0.8408
2404	0.842
2413	0.8435
2422	0.8449
2431	0.8455
2440	0.8458
2449	0.8447
2458	0.843
2467	0.8407
2476	0.8388
2485	0.837
2494	0.837
2503	0.8373
2512	0.8385
2521	0.8414
2530	0.8449
2539	0.8485
2548	0.8507
2557	0.8515
2566	0.8507
2575	0.8496
2584	0.8478
2593	0.8466
2602	0.8463
2611	0.8462
2620	0.8472
2629	0.8481
2638	0.8483
2647	0.8485
2656	0.849
2665	0.8495
2674	0.8491
2683	0.8476
2692	0.8438
2701	0.8343
2710	0.8143
2719	0.7904
2728	0.7699
2737	0.7618
2746	0.7637
2755	0.766
2764	0.7476
2773	0.7454
2782	0.7449
2791	0.7362
2800	0.7269
2809	0.7238
2818	0.6982
2827	0.6382
2836	0.5685
2845	0.4817
2854	0.3232
2863	0.1645
2872	0.1118
2881	0.0833
2890	0.072
2899	0.0673
2908	0.0596
2917	0.035
2926	0.0239
2935	0.0224
2944	0.0242
2953	0.0392
2962	0.0826
2971	0.0778
2980	0.0774
2989	0.0771
2998	0.0708
3007	0.0655
3016	0.0335
3025	0.0213
3034	0.0159
3043	0.0202
3052	0.0864
3061	0.2009
3070	0.3885
3079	0.5274
3088	0.6208
3097	0.6613
3106	0.6929
3115	0.7642
3124	0.7849
3133	0.799
3142	0.8098
3151	0.8206
3160	0.8313
3169	0.8385
3178	0.8422
3187	0.8443
3196	0.8457
3205	0.8468
3214	0.8473
3223	0.8475
3232	0.8476
3241	0.847
3250	0.8459
3259	0.8447
3268	0.8426
3277	0.8403
3286	0.8376
3295	0.8349
3304	0.8326
3313	0.8302
3322	0.8278
3331	0.8281
3340	0.8312
3349	0.8358
3358	0.8409
3367	0.8449
3376	0.8457
3385	0.8458
3394	0.8459
3403	0.8448
3412	0.8418
3421	0.8449
3430	0.8487
3439	0.8491
3448	0.8495
3457	0.8503
3466	0.8509
3475	0.8513
3484	0.852
3493	0.8527
3502	0.8531
3511	0.8526
3520	0.8523
3529	0.8519
3538	0.8515
3547	0.8511
3556	0.8507
3565	0.8502
3574	0.8498
3583	0.8493
3592	0.849
3601	0.8486
3610	0.8512
3619	0.8545
3628	0.861
3637	0.8635
3646	0.8555
3655	0.854
3664	0.858
3673	0.8557
3682	0.848
3691	0.8517
3700	0.8578
3709	0.8592
3718	0.8637
3727	0.8662
3736	0.8655
3745	0.8571
3754	0.8566
3763	0.857
3772	0.8577
3781	0.8587
3790	0.8564
