Infrared Spectrum: ETHANE
Formula: C2 H6
CAS: 74-84-0
State: GAS
Class: COBLENTZ
Instrument: DOW KBr FOREPRISM
Instrument parameters: GRATING CHANGED AT 5.0, 7.5, 15.0 MICRON
Sampling: TRANSMISSION
Path length: 5 CM
Resolution: 4
Origin: DOW CHEMICAL COMPANY
1/CM	TRANSMITTANCE
450.219	1.024
458.672	1.026
467.126	1.028
475.579	1.037
484.032	1.05
492.486	1.06
500.939	1.063
509.392	1.063
517.846	1.066
526.299	1.063
534.752	1.056
543.206	1.047
551.659	1.044
560.113	1.047
568.566	1.056
577.019	1.065
585.473	1.069
593.926	1.072
602.379	1.072
610.833	1.068
619.286	1.065
627.739	1.066
636.193	1.072
644.646	1.085
653.099	1.082
661.553	1.079
670.006	1.089
678.459	1.079
686.913	1.068
695.366	1.056
703.819	1.047
712.273	1.037
720.726	1.028
729.179	1.023
737.633	1.014
746.086	1.004
754.539	0.994
762.993	0.972
771.446	0.942
779.9	0.911
788.353	0.874
796.806	0.849
805.26	0.833
813.713	0.8285
822.166	0.6833
830.62	0.6462
839.073	0.7977
847.526	0.775
855.98	0.808
864.433	0.852
872.886	0.894
881.34	0.927
889.793	0.956
898.246	0.976
906.7	0.988
915.153	0.998
923.606	1.002
932.06	1.005
940.513	1.007
948.966	1.008
957.42	1.008
965.873	1.007
974.327	1.007
982.78	1.004
991.233	1.004
999.687	1.002
1008.14	1.001
1016.59	1.004
1025.05	1.008
1033.5	1.008
1041.95	1.007
1050.41	1.005
1058.86	1.004
1067.31	1.001
1075.77	1.001
1084.22	1.005
1092.67	1.01
1101.13	1.008
1109.58	1.011
1118.03	1.013
1126.49	1.013
1134.94	1.01
1143.39	1.008
1151.85	1.01
1160.3	1.01
1168.75	1.011
1177.21	1.004
1185.66	1.013
1194.11	1.014
1202.57	1.015
1211.02	1.017
1219.47	1.02
1227.93	1.024
1236.38	1.02
1244.83	1.014
1253.29	1.014
1261.74	1.011
1270.19	1.011
1278.65	1.01
1287.1	1.004
1295.55	1.001
1304.01	1
1312.46	1.001
1320.91	1.001
1329.37	0.998
1337.82	0.997
1346.27	0.986
1354.73	0.976
1363.18	0.947
1371.63	0.926
1380.09	0.749
1388.54	0.871
1396.99	0.7671
1405.45	0.7399
1413.9	0.749
1422.35	0.742
1430.81	0.742
1439.26	0.68
1447.71	0.5961
1456.17	0.6448
1464.62	0.525
1473.07	0.5862
1481.53	0.6732
1489.98	0.5812
1498.43	0.732
1506.89	0.5153
1515.34	0.7
1523.79	0.6879
1532.25	0.78
1540.7	0.781
1549.15	0.829
1557.61	0.872
1566.06	0.908
1574.51	0.934
1582.97	0.956
1591.42	0.968
1599.87	0.976
1608.33	0.982
1616.78	0.992
1625.23	0.984
1633.69	0.981
1642.14	0.976
1650.59	0.984
1659.05	0.979
1667.5	0.981
1675.95	0.991
1684.41	0.998
1692.86	0.979
1701.31	0.989
1709.77	0.979
1718.22	0.992
1726.67	0.978
1735.13	0.985
1743.58	0.979
1752.03	0.982
1760.49	0.979
1768.94	0.976
1777.39	0.975
1785.85	0.973
1794.3	0.976
1802.75	0.975
1811.21	0.973
1819.66	0.973
1828.11	0.976
1836.57	0.975
1845.02	0.976
1853.47	0.976
1861.93	0.976
1870.38	0.979
1878.83	0.979
1887.29	0.979
1895.74	0.981
1904.19	0.979
1912.65	0.979
1921.1	0.979
1929.55	0.979
1938.01	0.978
1946.46	0.979
1954.91	0.978
1963.37	0.978
1971.82	0.978
1980.27	0.976
1988.73	0.978
1997.18	0.979
2005.63	0.973
2014.09	0.977
2022.54	0.978
2030.99	0.973
2039.45	0.973
2047.9	0.976
2056.35	0.976
2064.81	0.976
2073.26	0.976
2081.71	0.9768
2090.17	0.976
2098.62	0.976
2107.08	0.976
2115.53	0.976
2123.98	0.976
2132.44	0.976
2140.89	0.976
2149.34	0.976
2157.8	0.976
2166.25	0.975
2174.7	0.973
2183.16	0.971
2191.61	0.969
2200.06	0.968
2208.52	0.966
2216.97	0.965
2225.42	0.962
2233.88	0.965
2242.33	0.966
2250.78	0.968
2259.24	0.968
2267.69	0.969
2276.14	0.969
2284.6	0.9688
2293.05	0.966
2301.5	0.9681
2309.96	0.971
2318.41	0.9763
2326.86	0.984
2335.32	0.9808
2343.77	0.9784
2352.22	0.9683
2360.68	0.9872
2369.13	0.9751
2377.58	0.9834
2386.04	0.943
2394.49	0.9491
2402.94	0.969
2411.4	0.977
2419.85	0.979
2428.3	0.978
2436.76	0.979
2445.21	0.979
2453.66	0.979
2462.12	0.9786
2470.57	0.978
2479.02	0.9786
2487.48	0.979
2495.93	0.979
2504.38	0.979
2512.84	0.979
2521.29	0.979
2529.74	0.979
2538.2	0.9782
2546.65	0.978
2555.1	0.9764
2563.56	0.976
2572.01	0.975
2580.46	0.973
2588.92	0.9722
2597.37	0.968
2605.82	0.965
2614.28	0.9598
2622.73	0.9535
2631.18	0.9516
2639.64	0.946
2648.09	0.945
2656.54	0.943
2665	0.943
2673.45	0.943
2681.9	0.945
2690.36	0.946
2698.81	0.9503
2707.26	0.949
2715.72	0.9429
2724.17	0.9312
2732.62	0.9167
2741.08	0.9122
2749.53	0.9121
2757.98	0.9149
2766.44	0.8748
2774.89	0.8261
2783.34	0.8586
2791.8	0.9058
2800.25	0.8999
2808.7	0.881
2817.16	0.861
2825.61	0.836
2834.06	0.8043
2842.52	0.7569
2850.97	0.7066
2859.42	0.5798
2867.88	0.3587
2876.33	0.1102
2884.78	0.1128
2893.24	0.0992
2901.69	0.1675
2910.14	0.1029
2918.6	0.0314
2927.05	0.0193
2935.5	0.0197
2943.96	0.024
2952.41	0.0243
2960.86	0.027
2969.32	0.0172
2977.77	0.0209
2986.22	0.0334
2994.68	0.0448
3003.13	0.0451
3011.58	0.0303
3020.04	0.0405
3028.49	0.0657
3036.94	0.0962
3045.4	0.2012
3053.85	0.3041
3062.3	0.4689
3070.76	0.6477
3079.21	0.7843
3087.66	0.869
3096.12	0.931
3104.57	0.9439
3113.02	0.9503
3121.48	0.953
3129.93	0.9551
3138.38	0.955
3146.84	0.956
3155.29	0.955
3163.74	0.955
3172.2	0.9509
3180.65	0.9489
3189.1	0.945
3197.56	0.943
3206.01	0.94
3214.46	0.933
3222.92	0.9335
3231.37	0.936
3239.82	0.934
3248.28	0.934
3256.73	0.9365
3265.18	0.9389
3273.64	0.9439
3282.09	0.9469
3290.54	0.9524
3299	0.958
3307.45	0.9624
3315.9	0.9659
3324.36	0.968
3332.81	0.9707
3341.26	0.971
3349.72	0.971
3358.17	0.971
3366.62	0.968
3375.08	0.966
3383.53	0.9676
3391.98	0.9674
3400.44	0.9676
3408.89	0.9627
3417.34	0.9645
3425.8	0.9695
3434.25	0.973
3442.7	0.975
3451.16	0.9757
3459.61	0.976
3468.06	0.9774
3476.52	0.978
3484.97	0.9787
3493.42	0.979
3501.88	0.981
3510.33	0.982
3518.78	0.984
3527.24	0.984
3535.69	0.984
3544.14	0.984
3552.6	0.9846
3561.05	0.9887
3569.5	0.985
3577.96	0.9881
3586.41	0.986
3594.86	0.986
3603.32	0.9899
3611.77	0.988
3620.22	0.9939
3628.68	0.979
3637.13	0.9955
3645.58	0.979
3654.04	0.9815
3662.49	0.992
3670.94	0.9799
3679.4	0.9812
3687.85	0.973
3696.3	0.978
3704.76	0.9742
3713.21	0.9729
3721.66	0.9802
3730.12	0.9759
3738.57	0.9703
3747.02	0.9591
3755.48	0.9567
3763.93	0.9628
3772.38	0.9627
3780.84	0.9628
3789.29	0.9704
3797.74	0.9656
