Infrared Spectrum: ETHYLENE
Formula: C2 H4
CAS: 74-85-1
State: GAS (150 mmHg DILUTED TO A TOTAL PRESSURE OF 600 mmHg WITH N2)
Class: COBLENTZ
Instrument: DOW KBr FOREPRISM
Instrument parameters: GRATING CHANGED AT 5.0, 7.5, 15.0 MICRON
Sampling: TRANSMISSION
Path length: 5 CM
Resolution: 4
Origin: DOW CHEMICAL COMPANY
1/CM	TRANSMITTANCE
454.005	1.014
462.453	1.017
470.901	1.029
479.349	1.037
487.797	1.052
496.245	1.061
504.693	1.059
513.142	1.059
521.59	1.062
530.038	1.058
538.486	1.049
546.934	1.043
555.382	1.039
563.83	1.05
572.278	1.055
580.726	1.063
589.174	1.069
597.622	1.069
606.07	1.068
614.519	1.065
622.967	1.063
631.415	1.066
639.863	1.075
648.311	1.079
656.759	1.081
665.207	1.082
673.655	1.078
682.103	1.061
690.551	1.046
698.999	1.034
707.447	1.02
715.895	1.005
724.344	1.004
732.792	0.992
741.24	0.986
749.688	0.984
758.136	0.956
766.584	0.96
775.032	0.966
783.48	0.978
791.928	0.982
800.376	0.982
808.824	0.976
817.272	0.968
825.721	0.947
834.169	0.895
842.617	0.816
851.065	0.742
859.513	0.683
867.961	0.489
876.409	0.402
884.857	0.375
893.305	0.3381
901.753	0.142
910.201	0.3798
918.649	0.3642
927.097	0.309
935.546	0.236
943.994	0.077
952.442	0.075
960.89	0.216
969.338	0.2161
977.786	0.1073
986.234	0.1722
994.682	0.27
1003.13	0.231
1011.58	0.345
1020.03	0.241
1028.47	0.258
1036.92	0.389
1045.37	0.52
1053.82	0.6801
1062.27	0.723
1070.71	0.7258
1079.16	0.819
1087.61	0.877
1096.06	0.892
1104.51	0.936
1112.96	0.96
1121.4	0.965
1129.85	0.982
1138.3	0.988
1146.75	0.988
1155.2	0.997
1163.64	1
1172.09	1.001
1180.54	0.994
1188.99	1.001
1197.44	1.004
1205.88	1.005
1214.33	1.008
1222.78	1.013
1231.23	1.014
1239.68	1.008
1248.12	1.002
1256.57	1.002
1265.02	1.001
1273.47	1
1281.92	0.998
1290.36	0.994
1298.81	0.991
1307.26	0.991
1315.71	0.991
1324.16	0.994
1332.61	0.995
1341.05	0.995
1349.5	0.995
1357.95	0.994
1366.4	0.995
1374.85	0.989
1383.29	0.96
1391.74	0.914
1400.19	0.811
1408.64	0.651
1417.09	0.526
1425.53	0.523
1433.98	0.712
1442.43	0.851
1450.88	0.712
1459.33	0.683
1467.77	0.6539
1476.22	0.6539
1484.67	0.742
1493.12	0.875
1501.57	0.943
1510.02	0.985
1518.46	0.985
1526.91	0.989
1535.36	0.991
1543.81	0.991
1552.26	0.981
1560.7	1.005
1569.15	0.985
1577.6	0.995
1586.05	0.979
1594.5	0.979
1602.94	0.978
1611.39	0.979
1619.84	0.976
1628.29	0.975
1636.74	0.982
1645.18	0.978
1653.63	1.002
1662.08	0.982
1670.53	0.986
1678.98	0.976
1687.42	0.978
1695.87	0.992
1704.32	0.985
1712.77	0.981
1721.22	0.973
1729.67	0.973
1738.11	0.973
1746.56	0.978
1755.01	0.968
1763.46	0.97
1771.91	0.973
1780.35	0.968
1788.8	0.972
1797.25	0.972
1805.7	0.969
1814.15	0.968
1822.59	0.962
1831.04	0.941
1839.49	0.908
1847.94	0.853
1856.39	0.789
1864.83	0.752
1873.28	0.786
1881.73	0.917
1890.18	0.8004
1898.63	0.851
1907.07	0.719
1915.52	0.732
1923.97	0.8
1932.42	0.89
1940.87	0.938
1949.32	0.957
1957.76	0.96
1966.21	0.96
1974.66	0.959
1983.11	0.96
1991.56	0.962
2000	0.957
2008.45	0.955
2016.9	0.952
2025.35	0.946
2033.8	0.9459
2042.24	0.9504
2050.69	0.9589
2059.14	0.9587
2067.59	0.9414
2076.04	0.922
2084.48	0.9355
2092.93	0.9536
2101.38	0.9617
2109.83	0.966
2118.28	0.966
2126.72	0.963
2135.17	0.96
2143.62	0.959
2152.07	0.9573
2160.52	0.9577
2168.97	0.9617
2177.41	0.962
2185.86	0.956
2194.31	0.953
2202.76	0.956
2211.21	0.957
2219.65	0.9598
2228.1	0.9593
2236.55	0.963
2245	0.965
2253.45	0.959
2261.89	0.9667
2270.34	0.969
2278.79	0.97
2287.24	0.97
2295.69	0.972
2304.13	0.9744
2312.58	0.9782
2321.03	0.981
2329.48	0.9855
2337.93	0.992
2346.37	0.9858
2354.82	0.984
2363.27	0.989
2371.72	0.9801
2380.17	0.9755
2388.62	0.97
2397.06	0.97
2405.51	0.97
2413.96	0.97
2422.41	0.97
2430.86	0.969
2439.3	0.969
2447.75	0.97
2456.2	0.969
2464.65	0.97
2473.1	0.9704
2481.54	0.969
2489.99	0.97
2498.44	0.972
2506.89	0.972
2515.34	0.972
2523.78	0.973
2532.23	0.973
2540.68	0.973
2549.13	0.973
2557.58	0.9726
2566.03	0.972
2574.47	0.972
2582.92	0.972
2591.37	0.973
2599.82	0.973
2608.27	0.973
2616.71	0.973
2625.16	0.973
2633.61	0.973
2642.06	0.973
2650.51	0.973
2658.95	0.973
2667.4	0.973
2675.85	0.973
2684.3	0.973
2692.75	0.973
2701.19	0.973
2709.64	0.973
2718.09	0.9722
2726.54	0.972
2734.99	0.972
2743.43	0.972
2751.88	0.972
2760.33	0.973
2768.78	0.973
2777.23	0.973
2785.68	0.973
2794.12	0.975
2802.57	0.975
2811.02	0.975
2819.47	0.975
2827.92	0.975
2836.36	0.975
2844.81	0.975
2853.26	0.975
2861.71	0.9747
2870.16	0.973
2878.6	0.973
2887.05	0.973
2895.5	0.973
2903.95	0.9724
2912.4	0.9699
2920.84	0.9607
2929.29	0.926
2937.74	0.867
2946.19	0.753
2954.64	0.6155
2963.08	0.5609
2971.53	0.5334
2979.98	0.6518
2988.43	0.6766
2996.88	0.843
3005.33	0.5333
3013.77	0.4009
3022.22	0.4385
3030.67	0.5018
3039.12	0.6234
3047.57	0.6482
3056.01	0.6054
3064.46	0.471
3072.91	0.4821
3081.36	0.287
3089.81	0.3978
3098.25	0.4232
3106.7	0.646
3115.15	0.4936
3123.6	0.3111
3132.05	0.4122
3140.49	0.3279
3148.94	0.5053
3157.39	0.6024
3165.84	0.5924
3174.29	0.6825
3182.73	0.7282
3191.18	0.7569
3199.63	0.8089
3208.08	0.8468
3216.53	0.8848
3224.98	0.9121
3233.42	0.9363
3241.87	0.9483
3250.32	0.9567
3258.77	0.9605
3267.22	0.965
3275.66	0.9676
3284.11	0.9653
3292.56	0.963
3301.01	0.963
3309.46	0.965
3317.9	0.966
3326.35	0.966
3334.8	0.966
3343.25	0.966
3351.7	0.965
3360.14	0.963
3368.59	0.963
3377.04	0.963
3385.49	0.963
3393.94	0.963
3402.38	0.963
3410.83	0.965
3419.28	0.965
3427.73	0.966
3436.18	0.966
3444.63	0.968
3453.07	0.9685
3461.52	0.969
3469.97	0.969
3478.42	0.97
3486.87	0.97
3495.31	0.972
3503.76	0.972
3512.21	0.973
3520.66	0.973
3529.11	0.9749
3537.55	0.975
3546	0.976
3554.45	0.9784
3562.9	0.979
3571.35	0.978
3579.79	0.9819
3588.24	0.978
3596.69	0.979
3605.14	0.984
3613.59	0.978
3622.04	0.9827
3630.48	0.976
3638.93	0.9873
3647.38	0.9781
3655.83	0.982
3664.28	0.9852
3672.72	0.9776
3681.17	0.9731
3689.62	0.9729
3698.07	0.9752
3706.52	0.9753
3714.96	0.9788
3723.41	0.985
3731.86	0.986
3740.31	0.9805
3748.76	0.978
3757.2	0.976
3765.65	0.975
3774.1	0.9705
3782.55	0.9787
3791	0.9776
