Infrared Spectrum: HYDROGEN SULFIDE
Formula: H2 S
CAS: 7783-06-4
State: GAS
Class: COBLENTZ
Instrument: DOW KBr FOREPRISM
Instrument parameters: GRATING CHANGED AT 5.0, 7.5, 15.0 MICRON
Sampling: TRANSMISSION
Path length: 12.5 CM
Resolution: 4
Origin: DOW CHEMICAL COMPANY
1/CM	TRANSMITTANCE
457.891	0.992
466.313	0.995
474.734	0.998
483.156	1
491.578	1
500	0.995
508.421	0.991
516.843	0.985
525.265	0.984
533.687	0.984
542.108	0.979
550.53	0.978
558.952	0.981
567.374	0.984
575.795	0.985
584.217	0.985
592.639	0.984
601.061	0.982
609.482	0.985
617.904	0.988
626.326	0.989
634.748	0.989
643.169	0.986
651.591	0.988
660.013	0.984
668.435	0.982
676.856	0.979
685.278	0.981
693.7	0.988
702.122	0.994
710.543	0.995
718.965	0.991
727.387	0.986
735.809	0.979
744.23	0.976
752.652	0.978
761.074	0.976
769.495	0.971
777.917	0.968
786.339	0.965
794.761	0.962
803.182	0.962
811.604	0.966
820.026	0.971
828.448	0.975
836.869	0.976
845.291	0.979
853.713	0.978
862.135	0.979
870.556	0.979
878.978	0.975
887.4	0.978
895.822	0.973
904.243	0.975
912.665	0.979
921.087	0.982
929.509	0.988
937.93	0.995
946.352	0.991
954.774	0.989
963.196	0.988
971.617	0.988
980.039	0.985
988.461	0.984
996.883	0.976
1005.3	0.976
1013.73	0.982
1022.15	0.982
1030.57	0.981
1038.99	0.986
1047.41	0.986
1055.83	0.984
1064.26	0.984
1072.68	0.978
1081.1	0.968
1089.52	0.962
1097.94	0.972
1106.37	0.962
1114.79	0.96
1123.21	0.952
1131.63	0.9111
1140.05	0.9529
1148.47	0.929
1156.9	0.94
1165.32	0.945
1173.74	0.906
1182.16	0.965
1190.58	0.939
1199	0.906
1207.43	0.849
1215.85	0.868
1224.27	0.8031
1232.69	0.861
1241.11	0.864
1249.53	0.738
1257.96	0.82
1266.38	0.845
1274.8	0.895
1283.22	0.914
1291.64	0.75
1300.07	0.9199
1308.49	0.96
1316.91	0.822
1325.33	0.952
1333.75	0.927
1342.17	0.722
1350.6	0.939
1359.02	0.849
1367.44	0.868
1375.86	0.955
1384.28	0.9291
1392.7	0.926
1401.13	0.956
1409.55	0.923
1417.97	0.939
1426.39	0.952
1434.81	0.937
1443.23	0.952
1451.66	0.942
1460.08	0.933
1468.5	0.955
1476.92	0.952
1485.34	0.963
1493.77	0.962
1502.19	0.963
1510.61	0.946
1519.03	0.94
1527.45	0.946
1535.87	0.93
1544.3	0.932
1552.72	0.947
1561.14	0.936
1569.56	0.943
1577.98	0.952
1586.4	0.958
1594.83	0.949
1603.25	0.942
1611.67	0.926
1620.09	0.917
1628.51	0.927
1636.94	0.929
1645.36	0.91
1653.78	0.895
1662.2	0.949
1670.62	0.93
1679.04	0.943
1687.47	0.94
1695.89	0.907
1704.31	0.936
1712.73	0.929
1721.15	0.949
1729.57	0.932
1738	0.934
1746.42	0.932
1754.84	0.94
1763.26	0.947
1771.68	0.929
1780.1	0.946
1788.53	0.939
1796.95	0.949
1805.37	0.953
1813.79	0.958
1822.21	0.953
1830.64	0.956
1839.06	0.956
1847.48	0.958
1855.9	0.959
1864.32	0.953
1872.74	0.953
1881.17	0.955
1889.59	0.956
1898.01	0.958
1906.43	0.953
1914.85	0.953
1923.27	0.96
1931.7	0.96
1940.12	0.956
1948.54	0.96
1956.96	0.965
1965.38	0.968
1973.8	0.971
1982.23	0.971
1990.65	0.972
1999.07	0.972
2007.49	0.972
2015.91	0.972
2024.34	0.971
2032.76	0.969
2041.18	0.969
2049.6	0.969
2058.02	0.969
2066.44	0.969
2074.87	0.969
2083.29	0.969
2091.71	0.9681
2100.13	0.968
2108.55	0.968
2116.97	0.968
2125.4	0.968
2133.82	0.968
2142.24	0.968
2150.66	0.968
2159.08	0.968
2167.5	0.969
2175.93	0.969
2184.35	0.969
2192.77	0.969
2201.19	0.971
2209.61	0.9694
2218.04	0.969
2226.46	0.968
2234.88	0.9675
2243.3	0.966
2251.72	0.966
2260.14	0.968
2268.57	0.969
2276.99	0.968
2285.41	0.969
2293.83	0.9669
2302.25	0.971
2310.67	0.971
2319.1	0.969
2327.52	0.969
2335.94	0.969
2344.36	0.969
2352.78	0.969
2361.2	0.971
2369.63	0.972
2378.05	0.972
2386.47	0.973
2394.89	0.973
2403.31	0.973
2411.74	0.972
2420.16	0.9708
2428.58	0.969
2437	0.972
2445.42	0.972
2453.84	0.973
2462.27	0.972
2470.69	0.968
2479.11	0.977
2487.53	0.978
2495.95	0.973
2504.37	0.973
2512.8	0.972
2521.22	0.972
2529.64	0.9739
2538.06	0.979
2546.48	0.975
2554.91	0.975
2563.33	0.9754
2571.75	0.9657
2580.17	0.9577
2588.59	0.963
2597.01	0.966
2605.44	0.966
2613.86	0.968
2622.28	0.9632
2630.7	0.9596
2639.12	0.9551
2647.54	0.952
2655.97	0.949
2664.39	0.935
2672.81	0.9205
2681.23	0.909
2689.65	0.904
2698.07	0.9073
2706.5	0.9126
2714.92	0.9176
2723.34	0.9238
2731.76	0.9309
2740.18	0.9352
2748.61	0.9375
2757.03	0.9465
2765.45	0.953
2773.87	0.953
2782.29	0.953
2790.71	0.9523
2799.14	0.952
2807.56	0.9493
2815.98	0.95
2824.4	0.95
2832.82	0.95
2841.24	0.9513
2849.67	0.953
2858.09	0.953
2866.51	0.9529
2874.93	0.9494
2883.35	0.949
2891.77	0.952
2900.2	0.953
2908.62	0.952
2917.04	0.947
2925.46	0.94
2933.88	0.9369
2942.31	0.9324
2950.73	0.93
2959.15	0.929
2967.57	0.923
2975.99	0.923
2984.41	0.921
2992.84	0.921
3001.26	0.921
3009.68	0.92
3018.1	0.917
3026.52	0.916
3034.94	0.916
3043.37	0.916
3051.79	0.916
3060.21	0.916
3068.63	0.916
3077.05	0.916
3085.47	0.914
3093.9	0.914
3102.32	0.914
3110.74	0.914
3119.16	0.913
3127.58	0.913
3136.01	0.913
3144.43	0.913
3152.85	0.913
3161.27	0.913
3169.69	0.913
3178.11	0.913
3186.54	0.913
3194.96	0.9137
3203.38	0.911
3211.8	0.911
3220.22	0.911
3228.64	0.911
3237.07	0.9102
3245.49	0.91
3253.91	0.91
3262.33	0.91
3270.75	0.91
3279.17	0.91
3287.6	0.911
3296.02	0.911
3304.44	0.911
3312.86	0.91
3321.28	0.913
3329.71	0.9113
3338.13	0.913
3346.55	0.914
3354.97	0.914
3363.39	0.914
3371.81	0.916
3380.24	0.9139
3388.66	0.9136
3397.08	0.913
3405.5	0.913
3413.92	0.911
3422.34	0.913
3430.77	0.913
3439.19	0.9136
3447.61	0.9131
3456.03	0.913
3464.45	0.914
3472.88	0.914
3481.3	0.913
3489.72	0.9165
3498.14	0.919
3506.56	0.923
3514.98	0.921
3523.41	0.923
3531.83	0.9211
3540.25	0.917
3548.67	0.914
3557.09	0.91
3565.51	0.9071
3573.94	0.8976
3582.36	0.8912
3590.78	0.8846
3599.2	0.8782
3607.62	0.8702
3616.04	0.8546
3624.47	0.8787
3632.89	0.8505
3641.31	0.8565
3649.73	0.852
3658.15	0.8105
3666.58	0.779
3675	0.7623
3683.42	0.7491
3691.84	0.7185
3700.26	0.7168
3708.68	0.7399
3717.11	0.7254
3725.53	0.6631
3733.95	0.7086
3742.37	0.7249
3750.79	0.7082
3759.21	0.8223
3767.64	0.7512
3776.06	0.5518
3784.48	0.705
3792.9	0.7174
