Infrared Spectrum: iso-pentane
Formula: C5 H12
CAS: 78-78-4
State: GAS
Class: COBLENTZ
Instrument: DOW KBr FOREPRISM-GRATING
Instrument parameters: GRATING CHANGED AT 5.0, 7.5, 15.0 MICRON
Sampling: TRANSMISSION
Path length: 5 CM
Resolution: 2
Origin: DOW CHEMICAL COMPANY
1/CM	TRANSMITTANCE
460	0.8534
469	0.8527
478	0.8517
487	0.851
496	0.8491
505	0.8463
514	0.8436
523	0.8413
532	0.8399
541	0.8395
550	0.8416
559	0.8498
568	0.8545
577	0.8576
586	0.8609
595	0.8643
604	0.8661
613	0.8667
622	0.8669
631	0.8661
640	0.8652
649	0.8644
658	0.8635
667	0.8701
676	0.8804
685	0.876
694	0.8779
703	0.8788
712	0.8784
721	0.8775
730	0.874
739	0.8649
748	0.8442
757	0.8152
766	0.7766
775	0.7887
784	0.8124
793	0.8353
802	0.8449
811	0.854
820	0.8664
829	0.8688
838	0.869
847	0.879
856	0.8796
865	0.8792
874	0.8768
883	0.8722
892	0.8652
901	0.8493
910	0.8238
919	0.8221
928	0.8322
937	0.8503
946	0.8614
955	0.8409
964	0.7994
973	0.7497
982	0.7278
991	0.7592
1000	0.7803
1009	0.7694
1018	0.7359
1027	0.7348
1036	0.7848
1045	0.8345
1054	0.8651
1063	0.8821
1072	0.8805
1081	0.8818
1090	0.8844
1099	0.8862
1108	0.8831
1117	0.8728
1126	0.8532
1135	0.8022
1144	0.7394
1153	0.7357
1162	0.7247
1171	0.7769
1180	0.7817
1189	0.8157
1198	0.854
1207	0.8766
1216	0.8835
1225	0.8828
1234	0.8765
1243	0.8646
1252	0.8465
1261	0.8222
1270	0.7937
1279	0.7725
1288	0.7609
1297	0.7628
1306	0.7759
1315	0.7837
1324	0.8107
1333	0.7847
1342	0.7692
1351	0.6794
1360	0.545
1369	0.3574
1378	0.2421
1387	0.1862
1396	0.2849
1405	0.4839
1414	0.7385
1423	0.7869
1432	0.7598
1441	0.6322
1450	0.41
1459	0.2056
1468	0.1254
1477	0.1215
1486	0.2399
1495	0.4745
1504	0.6687
1513	0.8191
1522	0.8455
1531	0.8495
1540	0.849
1549	0.8458
1558	0.8416
1567	0.8318
1576	0.8356
1585	0.8404
1594	0.8436
1603	0.8482
1612	0.8502
1621	0.8514
1630	0.8503
1639	0.8482
1648	0.8457
1657	0.8416
1666	0.8374
1675	0.8369
1684	0.84
1693	0.8429
1702	0.8444
1711	0.846
1720	0.8476
1729	0.8488
1738	0.8501
1747	0.8513
1756	0.8524
1765	0.8531
1774	0.8574
1783	0.8575
1792	0.8563
1801	0.8579
1810	0.8602
1819	0.8591
1828	0.8571
1837	0.8566
1846	0.8577
1855	0.8599
1864	0.8615
1873	0.8616
1882	0.8613
1891	0.8618
1900	0.8626
1909	0.8615
1918	0.8596
1927	0.8571
1936	0.8567
1945	0.859
1954	0.8616
1963	0.8639
1972	0.8666
1981	0.8683
1990	0.8693
1999	0.8722
2008	0.8762
2017	0.8775
2026	0.8768
2035	0.8755
2044	0.8738
2053	0.8718
2062	0.8697
2071	0.868
2080	0.8668
2089	0.8664
2098	0.8666
2107	0.8667
2116	0.8663
2125	0.8662
2134	0.8662
2143	0.8662
2152	0.8663
2161	0.8672
2170	0.8686
2179	0.8692
2188	0.8707
2197	0.8723
2206	0.8741
2215	0.8734
2224	0.8721
2233	0.8705
2242	0.8682
2251	0.8655
2260	0.8626
2269	0.8606
2278	0.859
2287	0.8581
2296	0.8592
2305	0.8619
2314	0.8646
2323	0.8678
2332	0.8701
2341	0.871
2350	0.8681
2359	0.8646
2368	0.8618
2377	0.8593
2386	0.8562
2395	0.8543
2404	0.8536
2413	0.8537
2422	0.8544
2431	0.8565
2440	0.8599
2449	0.864
2458	0.8649
2467	0.8646
2476	0.8636
2485	0.8625
2494	0.8618
2503	0.8615
2512	0.8621
2521	0.8667
2530	0.8723
2539	0.8733
2548	0.8708
2557	0.8623
2566	0.8503
2575	0.8353
2584	0.8219
2593	0.8105
2602	0.8008
2611	0.7956
2620	0.7923
2629	0.7928
2638	0.7969
2647	0.8079
2656	0.8202
2665	0.8202
2674	0.8183
2683	0.8155
2692	0.8117
2701	0.8025
2710	0.7826
2719	0.7532
2728	0.7177
2737	0.7142
2746	0.7255
2755	0.7469
2764	0.7621
2773	0.7647
2782	0.7497
2791	0.7235
2800	0.6941
2809	0.6593
2818	0.6075
2827	0.5514
2836	0.472
2845	0.3551
2854	0.183
2863	0.033
2872	0.0133
2881	0.0137
2890	0.0139
2899	0.0136
2908	0.0121
2917	0.0098
2926	0.007
2935	0.0055
2944	0.0041
2953	0.0033
2962	0.0025
2971	0.0023
2980	0.0042
2989	0.1207
2998	0.4525
3007	0.6364
3016	0.7149
3025	0.7505
3034	0.7609
3043	0.7614
3052	0.7473
3061	0.7331
3070	0.7459
3079	0.7864
3088	0.81
3097	0.8178
3106	0.8141
3115	0.8079
3124	0.799
3133	0.7875
3142	0.7738
3151	0.7564
3160	0.7396
3169	0.7351
3178	0.7492
3187	0.7693
3196	0.7941
3205	0.8097
3214	0.8232
3223	0.8374
3232	0.8518
3241	0.8652
3250	0.8697
3259	0.8694
3268	0.8686
3277	0.868
3286	0.8673
3295	0.8643
3304	0.8561
3313	0.8479
3322	0.8465
3331	0.8547
3340	0.8637
3349	0.8643
3358	0.8645
3367	0.8651
3376	0.8684
3385	0.872
3394	0.8728
3403	0.8736
3412	0.8746
3421	0.8765
3430	0.8807
3439	0.886
3448	0.8875
3457	0.8868
3466	0.8854
3475	0.8852
3484	0.8865
3493	0.8904
3502	0.8932
3511	0.8928
3520	0.8923
3529	0.8918
3538	0.8914
3547	0.8911
3556	0.8913
3565	0.8916
3574	0.8917
3583	0.8918
3592	0.8915
3601	0.8907
3610	0.8887
3619	0.8863
3628	0.8834
3637	0.8804
3646	0.8786
3655	0.8777
3664	0.8779
3673	0.8792
3682	0.8833
3691	0.887
3700	0.8871
3709	0.8872
3718	0.8865
3727	0.8856
3736	0.8847
3745	0.8838
3754	0.8826
3763	0.8798
3772	0.8768
3781	0.8756
3790	0.8785
