Infrared Spectrum: iso-butane
Formula: C4 H10
CAS: 75-28-5
State: GAS
Class: COBLENTZ
Instrument: DOW KBr FOREPRISM-GRATING
Instrument parameters: GRATING CHANGED AT 5.0, 7.5, 15.0 MICRON
Sampling: TRANSMISSION
Path length: 5 CM
Resolution: 2
Origin: DOW CHEMICAL COMPANY
1/CM	TRANSMITTANCE
454	0.8457
463	0.8533
472	0.8612
481	0.8715
490	0.8834
499	0.8928
508	0.8971
517	0.8954
526	0.8909
535	0.8844
544	0.8779
553	0.8736
562	0.875
571	0.8834
580	0.8966
589	0.9026
598	0.9038
607	0.9021
616	0.896
625	0.8969
634	0.9017
643	0.9072
652	0.9083
661	0.9078
670	0.9372
679	0.9189
688	0.9059
697	0.8958
706	0.8874
715	0.8795
724	0.8728
733	0.8663
742	0.8604
751	0.8557
760	0.853
769	0.8505
778	0.8491
787	0.8475
796	0.7726
805	0.8448
814	0.8421
823	0.8523
832	0.8588
841	0.8582
850	0.8574
859	0.8562
868	0.8547
877	0.8528
886	0.8458
895	0.8135
904	0.7844
913	0.7843
922	0.7798
931	0.8112
940	0.8481
949	0.8583
958	0.8585
967	0.8581
976	0.8577
985	0.8581
994	0.8584
1003	0.8594
1012	0.8629
1021	0.8699
1030	0.8663
1039	0.8652
1048	0.8637
1057	0.8622
1066	0.8608
1075	0.8596
1084	0.8586
1093	0.8579
1102	0.8585
1111	0.8597
1120	0.861
1129	0.8591
1138	0.8494
1147	0.8223
1156	0.7697
1165	0.6154
1174	0.5416
1183	0.625
1192	0.8471
1201	0.8575
1210	0.8603
1219	0.8601
1228	0.8652
1237	0.8597
1246	0.8598
1255	0.8589
1264	0.8555
1273	0.8498
1282	0.8441
1291	0.8384
1300	0.8352
1309	0.7964
1318	0.7308
1327	0.5826
1336	0.5097
1345	0.6769
1354	0.5443
1363	0.313
1372	0.3045
1381	0.2171
1390	0.4105
1399	0.2428
1408	0.7072
1417	0.7562
1426	0.8091
1435	0.7839
1444	0.625
1453	0.3976
1462	0.3047
1471	0.3595
1480	0.0466
1489	0.4155
1498	0.4718
1507	0.6687
1516	0.7828
1525	0.843
1534	0.8543
1543	0.8584
1552	0.853
1561	0.8585
1570	0.8535
1579	0.857
1588	0.8494
1597	0.8487
1606	0.8495
1615	0.8505
1624	0.8513
1633	0.8522
1642	0.8514
1651	0.8587
1660	0.8455
1669	0.8511
1678	0.8514
1687	0.8506
1696	0.8471
1705	0.8433
1714	0.8445
1723	0.8399
1732	0.851
1741	0.8529
1750	0.8542
1759	0.847
1768	0.851
1777	0.8585
1786	0.8583
1795	0.8582
1804	0.8579
1813	0.8561
1822	0.8505
1831	0.8467
1840	0.8483
1849	0.85
1858	0.8522
1867	0.856
1876	0.8576
1885	0.8578
1894	0.8579
1903	0.857
1912	0.8565
1921	0.8565
1930	0.8567
1939	0.8565
1948	0.8544
1957	0.8526
1966	0.8492
1975	0.8501
1984	0.8556
1993	0.8597
2002	0.8595
2011	0.8612
2020	0.8614
2029	0.8606
2038	0.8606
2047	0.8607
2056	0.8607
2065	0.8605
2074	0.8601
2083	0.8593
2092	0.8584
2101	0.8571
2110	0.8558
2119	0.8543
2128	0.8531
2137	0.8528
2146	0.8547
2155	0.8534
2164	0.8486
2173	0.8468
2182	0.8479
2191	0.8541
2200	0.8611
2209	0.8616
2218	0.8611
2227	0.8608
2236	0.8602
2245	0.8591
2254	0.8573
2263	0.8547
2272	0.8524
2281	0.8511
2290	0.8512
2299	0.8533
2308	0.8597
2317	0.8652
2326	0.8698
2335	0.8707
2344	0.8691
2353	0.8661
2362	0.8733
2371	0.8691
2380	0.8601
2389	0.8521
2398	0.8504
2407	0.8509
2416	0.8531
2425	0.8558
2434	0.8574
2443	0.8587
2452	0.8582
2461	0.8563
2470	0.8543
2479	0.8515
2488	0.8489
2497	0.8463
2506	0.8451
2515	0.8445
2524	0.846
2533	0.8526
2542	0.8551
2551	0.8542
2560	0.8527
2569	0.8515
2578	0.8512
2587	0.851
2596	0.8475
2605	0.8236
2614	0.796
2623	0.7704
2632	0.6413
2641	0.7859
2650	0.7916
2659	0.8165
2668	0.8389
2677	0.8407
2686	0.8387
2695	0.8335
2704	0.8175
2713	0.792
2722	0.7843
2731	0.7376
2740	0.7645
2749	0.7448
2758	0.7754
2767	0.7754
2776	0.7641
2785	0.7384
2794	0.7477
2803	0.7146
2812	0.7068
2821	0.6864
2830	0.6686
2839	0.6448
2848	0.5995
2857	0.4999
2866	0.1397
2875	0.0622
2884	0.0339
2893	0.0162
2902	0.0294
2911	0.0521
2920	0.0369
2929	0.0337
2938	0
2947	0
2956	0
2965	0
2974	0
2983	0.0026
2992	0.0946
3001	0.4936
3010	0.7716
3019	0.8111
3028	0.8265
3037	0.8311
3046	0.8321
3055	0.8316
3064	0.8316
3073	0.8314
3082	0.831
3091	0.8304
3100	0.8284
3109	0.8246
3118	0.8187
3127	0.8106
3136	0.8021
3145	0.7893
3154	0.7737
3163	0.7655
3172	0.7557
3181	0.7701
3190	0.7725
3199	0.7683
3208	0.7707
3217	0.7755
3226	0.7896
3235	0.8387
3244	0.8519
3253	0.8583
3262	0.8613
3271	0.8622
3280	0.8614
3289	0.8573
3298	0.8509
3307	0.843
3316	0.835
3325	0.8237
3334	0.8318
3343	0.8427
3352	0.849
3361	0.8567
3370	0.8569
3379	0.8543
3388	0.8546
3397	0.8575
3406	0.8648
3415	0.873
3424	0.876
3433	0.8774
3442	0.8778
3451	0.8779
3460	0.8779
3469	0.8778
3478	0.8779
3487	0.8781
3496	0.8783
3505	0.8784
3514	0.8785
3523	0.8786
3532	0.8787
3541	0.8792
3550	0.8809
3559	0.8818
3568	0.881
3577	0.8835
3586	0.8843
3595	0.8835
3604	0.884
3613	0.8844
3622	0.8843
3631	0.884
3640	0.8838
3649	0.8834
3658	0.8825
3667	0.8802
3676	0.8766
3685	0.8743
3694	0.8801
3703	0.8843
3712	0.8849
3721	0.8849
3730	0.8847
3739	0.8783
3748	0.8735
3757	0.8736
3766	0.8709
3775	0.8652
3784	0.8609
3793	0.8569
