Infrared Spectrum: iso-butylene
Formula: C 4 H 8
CAS: 115-11-7
State: gas
Origin: Sadtler Research Labs Under US-EPA Contract
1/CM	ABSORBANCE
450	0.0337575
462	0.0135673
474	0.0110596
486	0.0043724
498	0.00363295
510	0.00626925
522	0.0011574
534	0.00382585
546	0.0034722
558	0.00382585
570	0.0043724
582	0.003215
594	0.00427595
606	0.00286135
618	0.00260415
630	0.00369725
642	0.00318285
654	0.0028292
666	0.0044367
678	0.0016075
690	0.003215
702	0.00131815
714	0.00234695
726	0.0034079
738	0.00337575
750	0.00196115
762	0.00311855
774	0.00324715
786	0.00292565
798	0.00395445
810	0.0028292
822	0.0036651
834	0.0082304
846	0.0171681
858	0.0524045
870	0.076292
882	0.079732
894	0.0993114
906	0.0889269
918	0.0665505
930	0.0176182
942	0.00697655
954	0.00530475
966	0.00440455
978	0.0064943
990	0.00787675
1002	0.0052083
1014	0.00517615
1026	0.0048225
1038	0.0072659
1050	0.00929135
1062	0.0093235
1074	0.0097093
1086	0.00575485
1098	0.00331145
1110	0.00344005
1122	0.00331145
1134	0.00279705
1146	0.00286135
1158	0.00234695
1170	0.00253985
1182	0.0026363
1194	0.00279705
1206	0.00324715
1218	0.0041795
1230	0.0048868
1242	0.00671935
1254	0.0111239
1266	0.0163643
1278	0.0176182
1290	0.0168145
1302	0.0144032
1314	0.00800535
1326	0.00774815
1338	0.0074588
1350	0.0121206
1362	0.0289672
1374	0.0386443
1386	0.0461031
1398	0.0611815
1410	0.0310248
1422	0.0356222
1434	0.0486108
1446	0.083365
1458	0.0764527
1470	0.0660361
1482	0.0534333
1494	0.0316035
1506	0.0147247
1518	0.00851975
1530	0.00639785
1542	0.0066872
1554	0.0080375
1566	0.00877695
1578	0.0107381
1590	0.0107381
1602	0.0117026
1614	0.0148212
1626	0.0234374
1638	0.0419557
1650	0.0542371
1662	0.055073
1674	0.047357
1686	0.0239518
1698	0.0081661
1710	0.003858
1722	0.00389015
1734	0.0037937
1746	0.0031507
1758	0.00614065
1770	0.00999865
1782	0.0101916
1794	0.0103844
1806	0.0080375
1818	0.003858
1830	0.00266845
1842	0.00196115
1854	0.0021862
1866	0.001929
1878	0.00196115
1890	0.00189685
1902	0.00183255
1914	0.0016075
1926	0.0015432
1938	0.00157535
1950	0.00151105
1962	0.00176825
1974	0.0016718
1986	0.00151105
1998	0.00151105
2010	0.00118955
2022	0.0009645
2034	0.00086805
2046	0.0010288
2058	0.0009645
2070	0.0014789
2082	0.0014789
2094	0.00138245
2106	0.00106095
2118	0.00093235
2130	0.0010288
2142	0.00106095
2154	0.0015432
2166	0.0013503
2178	0.0015432
2190	0.00163965
2202	0.00125385
2214	0.0010931
2226	0.0007073
2238	0.00131815
2250	0.00131815
2262	0.001286
2274	0.00118955
2286	0.0010288
2298	0.00118955
2310	0.0016075
2322	0.00157535
2334	0.00118955
2346	0.00208975
2358	0.0009645
2370	0.0014146
2382	0.00144675
2394	0.00125385
2406	0.0012217
2418	0.00080375
2430	0.00118955
2442	0.0010288
2454	0.0014146
2466	0.00125385
2478	0.001286
2490	0.00112525
2502	0.001286
2514	0.0014146
2526	0.0015432
2538	0.00112525
2550	0.00061085
2562	0.000643
2574	0.0003215
2586	0.0005144
2598	0.0001929
2610	0.0005787
2622	0.0003858
2634	0.0007073
2646	0.00086805
2658	0.0010288
2670	0.0012217
2682	0.00138245
2694	0.00138245
2706	0.0026363
2718	0.0050154
2730	0.00781245
2742	0.0097093
2754	0.0101273
2766	0.0066872
2778	0.00549765
2790	0.00794105
2802	0.00993435
2814	0.0134709
2826	0.0149176
2838	0.0231159
2850	0.0444956
2862	0.0653288
2874	0.0811145
2886	0.103909
2898	0.121495
2910	0.150108
2922	0.172067
2934	0.169173
2946	0.281248
2958	0.173932
2970	0.201709
2982	0.188592
2994	0.163354
3006	0.0967394
3018	0.0480643
3030	0.028067
3042	0.0245305
3054	0.0335646
3066	0.0676115
3078	0.076517
3090	0.0708264
3102	0.0772243
3114	0.0308319
3126	0.0136959
3138	0.0092592
3150	0.00684795
3162	0.0048868
3174	0.0032793
3186	0.00266845
3198	0.00157535
3210	0.00131815
3222	0.0013503
3234	0.0013503
3246	0.001286
3258	0.00118955
3270	0.0010931
3282	0.00086805
3294	0.0011574
3306	0.00112525
3318	0.00138245
3330	0.00163965
3342	0.00202545
3354	0.00286135
3366	0.00292565
3378	0.00279705
3390	0.002572
3402	0.0024434
3414	0.0020576
3426	0.0017361
3438	0.0013503
3450	0.00176825
3462	0.00228265
3474	0.0016075
3486	0.0014146
3498	0.0018004
3510	0.00157535
3522	0.00234695
3534	0.0018004
3546	0.0009002
3558	0.0012217
3570	0.0014146
3582	0.00138245
3594	0.00163965
3606	0.00112525
3618	0.001929
3630	0.001929
3642	0.00151105
3654	0.0018647
3666	0.00125385
3678	0.0019933
3690	0.00131815
3702	0.0007716
3714	0.0015432
3726	0.0009002
3738	0.001929
3750	0.00163965
3762	0.00208975
3774	0.0030864
3786	0.0029578
3798	0.0014146
3810	0.0013503
3822	0.0013503
3834	0.0024434
3846	0.0008359
3858	0.0027649
3870	0.00183255
3882	0.0028935
3894	0.00163965
3906	0.00247555
3918	0.00234695
3930	0.00208975
3942	0.00189685
3954	0.0025077
3966	0.00106095
