Infrared Spectrum: n-PENTANE
Formula: C5 H12
CAS: 109-66-0
State: GAS
Class: COBLENTZ
Instrument: PERKIN-ELMER 180
Instrument parameters: I0 MODE RESOLUTION: 1 CM^-^1 AT 4000 CM^-^1
Sampling: TRANSMISSION
Path length: 18 CM CELL
Resolution: 4
Origin: DOW CHEMICAL COMPANY
1/CM	TRANSMITTANCE
400.894	0.573
410.276	0.621
419.658	0.668
429.04	0.703
438.422	0.74
447.804	0.76
457.186	0.785
466.568	0.799
475.95	0.811
485.332	0.829
494.714	0.838
504.096	0.841
513.478	0.845
522.86	0.845
532.242	0.849
541.624	0.85
551.006	0.852
560.388	0.852
569.77	0.856
579.152	0.854
588.534	0.849
597.916	0.855
607.298	0.85
616.68	0.852
626.062	0.852
635.444	0.854
644.826	0.86
654.208	0.857
663.59	0.85
672.972	0.848
682.354	0.852
691.736	0.849
701.118	0.845
710.5	0.839
719.882	0.824
729.264	0.817
738.646	0.819
748.028	0.83
757.41	0.831
766.792	0.832
776.174	0.834
785.556	0.839
794.938	0.839
804.32	0.842
813.702	0.842
823.084	0.841
832.466	0.84
841.848	0.843
851.23	0.837
860.612	0.835
869.994	0.834
879.376	0.842
888.758	0.839
898.14	0.824
907.522	0.819
916.904	0.817
926.286	0.832
935.668	0.845
945.05	0.847
954.432	0.846
963.814	0.85
973.196	0.85
982.578	0.841
991.96	0.841
1001.34	0.84
1010.72	0.835
1020.11	0.828
1029.49	0.829
1038.87	0.832
1048.25	0.835
1057.63	0.834
1067.02	0.831
1076.4	0.831
1085.78	0.834
1095.16	0.837
1104.54	0.837
1113.93	0.83
1123.31	0.824
1132.69	0.824
1142.07	0.827
1151.45	0.824
1160.84	0.831
1170.22	0.838
1179.6	0.839
1188.98	0.837
1198.36	0.831
1207.75	0.832
1217.13	0.831
1226.51	0.829
1235.89	0.826
1245.27	0.825
1254.66	0.825
1264.04	0.824
1273.42	0.825
1282.8	0.832
1292.18	0.828
1301.57	0.82
1310.95	0.825
1320.33	0.825
1329.71	0.822
1339.09	0.809
1348.48	0.802
1357.86	0.789
1367.24	0.762
1376.62	0.72
1386	0.728
1395.39	0.756
1404.77	0.797
1414.15	0.809
1423.53	0.8
1432.91	0.772
1442.3	0.718
1451.68	0.651
1461.06	0.595
1470.44	0.62
1479.82	0.668
1489.21	0.737
1498.59	0.788
1507.97	0.818
1517.35	0.83
1526.73	0.832
1536.12	0.83
1545.5	0.829
1554.88	0.825
1564.26	0.822
1573.64	0.815
1583.03	0.811
1592.41	0.814
1601.79	0.815
1611.17	0.819
1620.55	0.819
1629.94	0.816
1639.32	0.811
1648.7	0.809
1658.08	0.824
1667.46	0.83
1676.85	0.831
1686.23	0.834
1695.61	0.836
1704.99	0.831
1714.37	0.831
1723.76	0.829
1733.14	0.824
1742.52	0.829
1751.9	0.832
1761.28	0.831
1770.67	0.836
1780.05	0.84
1789.43	0.841
1798.81	0.84
1808.19	0.841
1817.58	0.84
1826.96	0.841
1836.34	0.842
1845.72	0.843
1855.1	0.843
1864.49	0.843
1873.87	0.842
1883.25	0.843
1892.63	0.838
1902.01	0.84
1911.4	0.841
1920.78	0.841
1930.16	0.843
1939.54	0.843
1948.92	0.841
1958.31	0.842
1967.69	0.841
1977.07	0.842
1986.45	0.84
1995.83	0.841
2005.22	0.842
2014.6	0.84
2023.98	0.838
2033.36	0.8399
2042.74	0.84
2052.13	0.84
2061.51	0.8404
2070.89	0.839
2080.27	0.838
2089.65	0.839
2099.04	0.839
2108.42	0.839
2117.8	0.839
2127.18	0.839
2136.56	0.8383
2145.95	0.839
2155.33	0.8372
2164.71	0.837
2174.09	0.836
2183.47	0.8377
2192.86	0.837
2202.24	0.8357
2211.62	0.8351
2221	0.8356
2230.38	0.8354
2239.77	0.836
2249.15	0.8349
2258.53	0.8376
2267.91	0.83
2277.29	0.8331
2286.68	0.835
2296.06	0.833
2305.44	0.832
2314.82	0.832
2324.2	0.829
2333.59	0.83
2342.97	0.8272
2352.35	0.829
2361.73	0.827
2371.11	0.828
2380.5	0.8311
2389.88	0.8313
2399.26	0.83
2408.64	0.828
2418.02	0.828
2427.41	0.8307
2436.79	0.8292
2446.17	0.828
2455.55	0.8275
2464.93	0.8318
2474.32	0.8304
2483.7	0.8316
2493.08	0.8333
2502.46	0.831
2511.84	0.829
2521.23	0.8299
2530.61	0.8296
2539.99	0.8289
2549.37	0.829
2558.75	0.828
2568.14	0.8245
2577.52	0.823
2586.9	0.8215
2596.28	0.821
2605.66	0.815
2615.05	0.814
2624.43	0.815
2633.81	0.813
2643.19	0.817
2652.57	0.8151
2661.96	0.816
2671.34	0.8139
2680.72	0.812
2690.1	0.812
2699.48	0.812
2708.87	0.812
2718.25	0.81
2727.63	0.8056
2737.01	0.7968
2746.39	0.7933
2755.78	0.7996
2765.16	0.8049
2774.54	0.8032
2783.92	0.799
2793.3	0.7912
2802.69	0.7876
2812.07	0.7803
2821.45	0.7645
2830.83	0.729
2840.21	0.6552
2849.6	0.5399
2858.98	0.4565
2868.36	0.3497
2877.74	0.2449
2887.12	0.261
2896.51	0.2908
2905.89	0.3385
2915.27	0.24
2924.65	0.1553
2934.03	0.1105
2943.42	0.1079
2952.8	0.0988
2962.18	0.0618
2971.56	0.0609
2980.94	0.1052
2990.33	0.3225
2999.71	0.627
3009.09	0.7437
3018.47	0.7704
3027.85	0.776
3037.24	0.778
3046.62	0.779
3056	0.7823
3065.38	0.7848
3074.76	0.788
3084.15	0.7888
3093.53	0.795
3102.91	0.7997
3112.29	0.799
3121.67	0.799
3131.06	0.8004
3140.44	0.7972
3149.82	0.796
3159.2	0.792
3168.58	0.793
3177.97	0.788
3187.35	0.789
3196.73	0.789
3206.11	0.7915
3215.49	0.7961
3224.88	0.7996
3234.26	0.7999
3243.64	0.798
3253.02	0.797
3262.4	0.796
3271.79	0.795
3281.17	0.7913
3290.55	0.791
3299.93	0.792
3309.31	0.79
3318.7	0.789
3328.08	0.7892
3337.46	0.7908
3346.84	0.7907
3356.22	0.788
3365.61	0.7857
3374.99	0.7842
3384.37	0.784
3393.75	0.784
3403.13	0.785
3412.52	0.786
3421.9	0.7874
3431.28	0.7909
3440.66	0.7916
3450.04	0.792
3459.43	0.795
3468.81	0.797
3478.19	0.7995
3487.57	0.802
3496.95	0.8015
3506.34	0.802
3515.72	0.803
3525.1	0.8061
3534.48	0.808
3543.86	0.809
3553.25	0.809
3562.63	0.809
3572.01	0.809
3581.39	0.809
3590.77	0.809
3600.16	0.809
3609.54	0.8093
3618.92	0.809
3628.3	0.8092
3637.68	0.8095
3647.07	0.81
3656.45	0.8097
3665.83	0.809
3675.21	0.8073
3684.59	0.808
3693.98	0.807
3703.36	0.8088
3712.74	0.8096
3722.12	0.81
3731.5	0.808
3740.89	0.8089
3750.27	0.809
3759.65	0.807
3769.03	0.807
3778.41	0.807
3787.8	0.8085
3797.18	0.81
3806.56	0.809
3815.94	0.808
3825.32	0.8064
3834.71	0.806
3844.09	0.808
3853.47	0.8089
3862.85	0.806
3872.23	0.803
3881.62	0.804
3891	0.804
3900.38	0.804
3909.76	0.806
3919.14	0.8037
3928.53	0.8063
3937.91	0.806
3947.29	0.8067
3956.67	0.804
3966.05	0.804
3975.44	0.802
3984.82	0.804
3994.2	0.802
