Infrared Spectrum: neo-pentane
Formula: C 5 H 12
CAS: 463-82-1
State: gas
Instrument: HP-GC/MS/IRD
Origin: NIST Mass Spectrometry Data Center
1/CM	ABSORBANCE
550	0.0003485
562	3.4e-05
574	0.000187
586	0.0002125
598	0.0001275
610	0.000323
622	0.000238
634	0.000306
646	0.0003655
658	0.000221
670	0.000187
682	0.000289
694	0.0003315
706	0.0002805
718	0.000255
730	0.000289
742	0.0002465
754	0.000238
766	0.000238
778	0.0003145
790	0.0002805
802	0.0002635
814	0.0002975
826	0.0002635
838	0.0002295
850	0.000306
862	0.000306
874	0.0003825
886	0.0003485
898	0.0005015
910	0.000561
922	0.00068
934	0.0005695
946	0.000476
958	0.0003825
970	0.0003995
982	0.000425
994	0.000425
1006	0.0004505
1018	0.000408
1030	0.0003995
1042	0.0003655
1054	0.0003995
1066	0.0003995
1078	0.0003485
1090	0.000323
1102	0.00034
1114	0.0003485
1126	0.0002975
1138	0.0002805
1150	0.0003145
1162	0.0003145
1174	0.0003315
1186	0.0003825
1198	0.000476
1210	0.000765
1222	0.0015045
1234	0.004012
1246	0.00799
1258	0.0042075
1270	0.000646
1282	0.00034
1294	0.000323
1306	0.0003315
1318	0.0004505
1330	0.000969
1342	0.003247
1354	0.0072675
1366	0.012104
1378	0.0074375
1390	0.0050745
1402	0.0010625
1414	0.000612
1426	0.0007565
1438	0.0019975
1450	0.004522
1462	0.0055335
1474	0.0079985
1486	0.0061115
1498	0.0042245
1510	0.002567
1522	0.0011305
1534	0.00051
1546	0.0002975
1558	0.000272
1570	0.000238
1582	0.0002125
1594	0.0002125
1606	0.000204
1618	0.000204
1630	0.0001955
1642	0.0001955
1654	0.0001785
1666	0.0001445
1678	0.000119
1690	0.0001275
1702	0.00017
1714	0.0001615
1726	0.000153
1738	0.0001275
1750	0.000119
1762	0.0001105
1774	7.65e-05
1786	0.000119
1798	0.0001445
1810	0.0001615
1822	0.0001785
1834	0.000153
1846	0.00017
1858	0.000119
1870	0.0001445
1882	0.0001445
1894	0.0001445
1906	0.0001445
1918	0.000102
1930	6.8e-05
1942	0.000102
1954	0.000153
1966	0.000255
1978	0.0002975
1990	0.0001785
2002	4.25e-05
2014	9.35e-05
2026	7.65e-05
2038	5.95e-05
2050	7.65e-05
2062	5.95e-05
2074	5.1e-05
2086	9.35e-05
2098	0.000153
2110	0.0001105
2122	6.8e-05
2134	3.4e-05
2146	3.4e-05
2158	3.4e-05
2170	5.1e-05
2182	5.95e-05
2194	4.25e-05
2206	4.25e-05
2218	4.25e-05
2230	8.5e-06
2242	5.1e-05
2254	0.0001105
2266	0.000136
2278	0.000221
2290	0.000204
2302	0.0001785
2314	0.000102
2326	0.0001105
2338	7.65e-05
2350	7.65e-05
2362	0.0001105
2374	0.0001105
2386	0.000136
2398	0.0001785
2410	0.0002125
2422	0.0001785
2434	0.0001445
2446	0.0001445
2458	8.5e-05
2470	7.65e-05
2482	0.0001105
2494	9.35e-05
2506	0.000136
2518	0.0001955
2530	0.000204
2542	0.0002635
2554	0.0002125
2566	0.0002295
2578	0.000221
2590	0.0002465
2602	0.000323
2614	0.000374
2626	0.0003825
2638	0.00034
2650	0.0003315
2662	0.0003315
2674	0.00051
2686	0.0006715
2698	0.0009945
2710	0.001054
2722	0.0012325
2734	0.001173
2746	0.001207
2758	0.0011305
2770	0.0011645
2782	0.0013005
2794	0.0015895
2806	0.001887
2818	0.002414
2830	0.0031875
2842	0.0053465
2854	0.0113305
2866	0.015606
2878	0.025041
2890	0.023103
2902	0.024684
2914	0.025228
2926	0.030685
2938	0.0489855
2950	0.0638945
2962	0.085
2974	0.0542895
2986	0.02873
2998	0.0068765
3010	0.0023545
3022	0.001479
3034	0.0011475
3046	0.0009945
3058	0.000969
3070	0.0010115
3082	0.0009605
3094	0.0009775
3106	0.0009775
3118	0.000986
3130	0.001054
3142	0.001122
3154	0.0011475
3166	0.0010625
3178	0.001122
3190	0.001105
3202	0.001088
3214	0.00119
3226	0.001071
3238	0.0008415
3250	0.000629
3262	0.0004845
3274	0.0005015
3286	0.0004505
3298	0.0004165
3310	0.000391
3322	0.0002805
3334	0.0002465
3346	0.000272
3358	0.0004845
3370	0.000578
3382	0.000527
3394	0.000425
3406	0.000272
3418	0.00017
3430	0.000102
3442	5.95e-05
3454	7.65e-05
3466	6.8e-05
3478	1.7e-05
3490	4.25e-05
3502	5.1e-05
3514	8.5e-05
3526	4.25e-05
3538	4.25e-05
3550	5.95e-05
3562	1.7e-05
3574	0
3586	5.1e-05
3598	5.1e-05
3610	5.95e-05
3622	5.95e-05
3634	3.4e-05
3646	0.000102
3658	6.8e-05
3670	0.000119
3682	9.35e-05
3694	3.4e-05
3706	9.35e-05
3718	0.000136
3730	0.000153
3742	0.0001275
3754	0.0001445
3766	0.00017
3778	0.0001955
3790	0.00017
3802	0.000272
3814	0.0003315
3826	0.0003655
3838	0.0002805
