Infrared Spectrum: OZONE
Formula: O3
CAS: 10028-15-6
State: GAS
Class: COBLENTZ
Instrument: BECKMAN IR-9 (GRATING)
Sampling: TRANSMISSION
Path length: 1000 CM
Resolution: 2
Origin: DOW CHEMICAL COMPANY
1/CM	TRANSMITTANCE
402.089	0.963
411.227	0.956
420.366	0.94
429.504	0.924
438.643	0.911
447.781	0.903
456.919	0.899
466.058	0.897
475.196	0.903
484.335	0.911
493.473	0.92
502.612	0.936
511.75	0.944
520.888	0.954
530.027	0.967
539.165	0.983
548.304	1.006
557.442	1.016
566.58	1.022
575.719	1.026
584.857	1.026
593.996	1.026
603.134	1.026
612.272	1.022
621.411	1.006
630.549	1
639.688	0.975
648.826	0.932
657.964	0.92
667.103	0.885
676.241	0.795
685.38	0.793
694.518	0.815
703.657	0.852
712.795	0.852
721.933	0.848
731.072	0.875
740.21	0.891
749.349	0.901
758.487	0.913
767.625	0.918
776.764	0.915
785.902	0.901
795.041	0.887
804.179	0.891
813.317	0.905
822.456	0.922
831.594	0.928
840.733	0.926
849.871	0.924
859.009	0.926
868.148	0.926
877.286	0.926
886.425	0.926
895.563	0.922
904.702	0.92
913.84	0.918
922.978	0.915
932.117	0.911
941.255	0.907
950.394	0.907
959.532	0.907
968.67	0.903
977.809	0.893
986.947	0.864
996.086	0.782
1005.22	0.633
1014.36	0.4361
1023.5	0.2931
1032.64	0.26
1041.78	0.2739
1050.92	0.2683
1060.05	0.145
1069.19	0.7251
1078.33	0.86
1087.47	0.879
1096.61	0.883
1105.75	0.885
1114.88	0.883
1124.02	0.883
1133.16	0.891
1142.3	0.887
1151.44	0.893
1160.58	0.895
1169.72	0.9089
1178.85	0.913
1187.99	0.926
1197.13	0.932
1206.27	0.872
1215.41	0.862
1224.55	0.864
1233.68	0.864
1242.82	0.877
1251.96	0.877
1261.1	0.87
1270.24	0.866
1279.38	0.862
1288.51	0.872
1297.65	0.856
1306.79	0.848
1315.93	0.852
1325.07	0.856
1334.21	0.852
1343.35	0.848
1352.48	0.831
1361.62	0.811
1370.76	0.801
1379.9	0.799
1389.04	0.809
1398.18	0.825
1407.31	0.836
1416.45	0.842
1425.59	0.848
1434.73	0.85
1443.87	0.852
1453.01	0.848
1462.14	0.844
1471.28	0.8401
1480.42	0.848
1489.56	0.84
1498.7	0.846
1507.84	0.815
1516.97	0.831
1526.11	0.821
1535.25	0.831
1544.39	0.809
1553.53	0.831
1562.67	0.834
1571.81	0.836
1580.94	0.84
1590.08	0.846
1599.22	0.848
1608.36	0.844
1617.5	0.827
1626.64	0.834
1635.77	0.825
1644.91	0.825
1654.05	0.786
1663.19	0.825
1672.33	0.809
1681.47	0.813
1690.6	0.811
1699.74	0.764
1708.88	0.807
1718.02	0.7721
1727.16	0.784
1736.3	0.745
1745.44	0.747
1754.57	0.77
1763.71	0.79
1772.85	0.79
1781.99	0.809
1791.13	0.807
1800.27	0.809
1809.4	0.813
1818.54	0.819
1827.68	0.817
1836.82	0.821
1845.96	0.815
1855.1	0.827
1864.23	0.829
1873.37	0.827
1882.51	0.831
1891.65	0.831
1900.79	0.834
1909.93	0.831
1919.07	0.825
1928.2	0.825
1937.34	0.829
1946.48	0.827
1955.62	0.825
1964.76	0.825
1973.9	0.827
1983.03	0.825
1992.17	0.823
2001.31	0.829
2010.45	0.815
2019.59	0.812
2028.73	0.8049
2037.86	0.799
2047	0.797
2056.14	0.79
2065.28	0.7837
2074.42	0.7709
2083.56	0.7559
2092.69	0.7336
2101.83	0.717
2110.97	0.7193
2120.11	0.7099
2129.25	0.6627
2138.39	0.7592
2147.53	0.774
2156.66	0.776
2165.8	0.772
2174.94	0.7658
2184.08	0.7607
2193.22	0.7537
2202.36	0.7404
2211.49	0.721
2220.63	0.7223
2229.77	0.737
2238.91	0.7068
2248.05	0.7027
2257.19	0.7245
2266.32	0.7414
2275.46	0.745
2284.6	0.7504
2293.74	0.7484
2302.88	0.7246
2312.02	0.6972
2321.16	0.6432
2330.29	0.585
2339.43	0.533
2348.57	0.521
2357.71	0.511
2366.85	0.5004
2375.99	0.4856
2385.12	0.6345
2394.26	0.7526
2403.4	0.758
2412.54	0.758
2421.68	0.76
2430.82	0.76
2439.95	0.758
2449.09	0.756
2458.23	0.7577
2467.37	0.758
2476.51	0.758
2485.65	0.7573
2494.78	0.756
2503.92	0.756
2513.06	0.756
2522.2	0.756
2531.34	0.756
2540.48	0.756
2549.62	0.756
2558.75	0.7552
2567.89	0.754
2577.03	0.754
2586.17	0.752
2595.31	0.75
2604.45	0.747
2613.58	0.7461
2622.72	0.745
2631.86	0.743
2641	0.7411
2650.14	0.741
2659.28	0.741
2668.41	0.739
2677.55	0.739
2686.69	0.737
2695.83	0.735
2704.97	0.733
2714.11	0.733
2723.25	0.733
2732.38	0.733
2741.52	0.731
2750.66	0.729
2759.8	0.729
2768.94	0.7269
2778.08	0.7239
2787.21	0.723
2796.35	0.721
2805.49	0.7188
2814.63	0.717
2823.77	0.717
2832.91	0.717
2842.04	0.7153
2851.18	0.715
2860.32	0.7127
2869.46	0.709
2878.6	0.7085
2887.74	0.706
2896.87	0.704
2906.01	0.704
2915.15	0.702
2924.29	0.7006
2933.43	0.6996
2942.57	0.696
2951.71	0.696
2960.84	0.694
2969.98	0.692
2979.12	0.692
2988.26	0.692
2997.4	0.692
3006.54	0.692
3015.67	0.692
3024.81	0.69
3033.95	0.688
3043.09	0.688
3052.23	0.686
3061.37	0.6854
3070.5	0.6856
3079.64	0.686
3088.78	0.686
3097.92	0.688
3107.06	0.6863
3116.2	0.686
3125.34	0.686
3134.47	0.684
3143.61	0.684
3152.75	0.682
3161.89	0.68
3171.03	0.68
3180.17	0.678
3189.3	0.678
3198.44	0.678
3207.58	0.678
3216.72	0.676
3225.86	0.6752
3235	0.674
3244.13	0.672
3253.27	0.6701
3262.41	0.668
3271.55	0.665
3280.69	0.663
3289.83	0.661
3298.96	0.661
3308.1	0.657
3317.24	0.656
3326.38	0.653
3335.52	0.651
3344.66	0.649
3353.8	0.647
3362.93	0.647
3372.07	0.646
3381.21	0.645
3390.35	0.645
3399.49	0.647
3408.63	0.645
3417.76	0.645
3426.9	0.6439
3436.04	0.643
3445.18	0.643
3454.32	0.643
3463.46	0.643
3472.59	0.643
3481.73	0.643
3490.87	0.643
3500.01	0.643
3509.15	0.643
3518.29	0.643
3527.43	0.643
3536.56	0.645
3545.7	0.643
3554.84	0.643
3563.98	0.6426
3573.12	0.639
3582.26	0.637
3591.39	0.635
3600.53	0.6346
3609.67	0.6316
3618.81	0.629
3627.95	0.6276
3637.09	0.6176
3646.22	0.6237
3655.36	0.6269
3664.5	0.6261
3673.64	0.6325
3682.78	0.6212
3691.92	0.622
3701.05	0.6185
3710.19	0.618
3719.33	0.616
3728.47	0.616
3737.61	0.6092
3746.75	0.6
3755.89	0.6
3765.02	0.6146
3774.16	0.62
3783.3	0.625
3792.44	0.625
