Infrared Spectrum: propylene
Formula: C3 H6
CAS: 115-07-1
State: GAS
Class: COBLENTZ
Instrument: DOW KBr FOREPRISM-GRATING
Instrument parameters: GRATING CHANGED AT 5.0, 7.5, 15.0 MICRON
Sampling: TRANSMISSION
Path length: 5 CM
Resolution: 2
Origin: DOW CHEMICAL COMPANY
1/CM	TRANSMITTANCE
451	0.8876
460	0.8922
469	0.8985
478	0.9052
487	0.9104
496	0.9098
505	0.9025
514	0.8875
523	0.8543
532	0.7977
541	0.7345
550	0.6573
559	0.616
568	0.586
577	0.4124
586	0.5785
595	0.5731
604	0.5885
613	0.6512
622	0.7162
631	0.7963
640	0.8448
649	0.8761
658	0.9015
667	0.9314
676	0.9195
685	0.9152
694	0.9113
703	0.9036
712	0.8954
721	0.8888
730	0.8837
739	0.8809
748	0.8797
757	0.8804
766	0.8805
775	0.8799
784	0.8786
793	0.8765
802	0.8736
811	0.8657
820	0.8504
829	0.8158
838	0.7669
847	0.7118
856	0.6134
865	0.5086
874	0.4132
883	0.2729
892	0.2123
901	0.1636
910	0.0094
919	0.1127
928	0.1379
937	0.147
946	0.1692
955	0.2164
964	0.2918
973	0.3731
982	0.3281
991	0.09
1000	0.4407
1009	0.4674
1018	0.5019
1027	0.596
1036	0.6616
1045	0.5705
1054	0.7635
1063	0.7784
1072	0.7983
1081	0.8172
1090	0.8398
1099	0.8651
1108	0.8704
1117	0.8747
1126	0.8758
1135	0.872
1144	0.8618
1153	0.8502
1162	0.8472
1171	0.8451
1180	0.8444
1189	0.8493
1198	0.8493
1207	0.8474
1216	0.8504
1225	0.8519
1234	0.87
1243	0.8538
1252	0.8638
1261	0.8745
1270	0.8692
1279	0.8622
1288	0.8581
1297	0.8583
1306	0.8522
1315	0.8454
1324	0.8497
1333	0.848
1342	0.8399
1351	0.8191
1360	0.7897
1369	0.7561
1378	0.6944
1387	0.6624
1396	0.5737
1405	0.5741
1414	0.5579
1423	0.5265
1432	0.4735
1441	0.2737
1450	0.2943
1459	0.5388
1468	0.3789
1477	0.3288
1486	0.4594
1495	0.553
1504	0.637
1513	0.7015
1522	0.7446
1531	0.7757
1540	0.8033
1549	0.7849
1558	0.8101
1567	0.7896
1576	0.7905
1585	0.7872
1594	0.7941
1603	0.7815
1612	0.7424
1621	0.6462
1630	0.4505
1639	0.3269
1648	0.3931
1657	0.4993
1666	0.2728
1675	0.607
1684	0.8398
1693	0.8594
1702	0.8576
1711	0.8539
1720	0.861
1729	0.8554
1738	0.8542
1747	0.8635
1756	0.8628
1765	0.8641
1774	0.8603
1783	0.8464
1792	0.8292
1801	0.7734
1810	0.7011
1819	0.7064
1828	0.7525
1837	0.6583
1846	0.7252
1855	0.8005
1864	0.8157
1873	0.8366
1882	0.8428
1891	0.8504
1900	0.8543
1909	0.8555
1918	0.8563
1927	0.8567
1936	0.8614
1945	0.8578
1954	0.8524
1963	0.8471
1972	0.8501
1981	0.8465
1990	0.8478
1999	0.8503
2008	0.8531
2017	0.8449
2026	0.841
2035	0.8413
2044	0.8426
2053	0.8459
2062	0.8513
2071	0.8566
2080	0.8586
2089	0.8589
2098	0.8572
2107	0.8577
2116	0.8612
2125	0.8632
2134	0.8649
2143	0.8666
2152	0.8673
2161	0.8676
2170	0.8672
2179	0.8661
2188	0.8646
2197	0.8631
2206	0.8616
2215	0.8597
2224	0.8576
2233	0.8552
2242	0.8545
2251	0.8557
2260	0.8567
2269	0.8567
2278	0.8556
2287	0.8534
2296	0.8508
2305	0.8499
2314	0.8569
2323	0.8696
2332	0.8747
2341	0.874
2350	0.8758
2359	0.8802
2368	0.8765
2377	0.8682
2386	0.8607
2395	0.8586
2404	0.8587
2413	0.8612
2422	0.8644
2431	0.8661
2440	0.8644
2449	0.8625
2458	0.8612
2467	0.8605
2476	0.8607
2485	0.861
2494	0.8624
2503	0.8638
2512	0.864
2521	0.8612
2530	0.8581
2539	0.8553
2548	0.854
2557	0.854
2566	0.855
2575	0.8568
2584	0.8587
2593	0.8597
2602	0.8603
2611	0.8607
2620	0.8611
2629	0.8623
2638	0.8647
2647	0.8689
2656	0.8723
2665	0.8733
2674	0.8724
2683	0.869
2692	0.8631
2701	0.8553
2710	0.845
2719	0.8314
2728	0.8214
2737	0.8189
2746	0.7998
2755	0.8108
2764	0.8311
2773	0.8219
2782	0.8116
2791	0.8078
2800	0.787
2809	0.7857
2818	0.7898
2827	0.7831
2836	0.7397
2845	0.6135
2854	0.4827
2863	0.549
2872	0.4131
2881	0.3287
2890	0.3049
2899	0.3101
2908	0.2045
2917	0.1367
2926	0.1595
2935	0.1436
2944	0.0862
2953	0.047
2962	0.0909
2971	0.0876
2980	0.0801
2989	0.1003
2998	0.0965
3007	0.1338
3016	0.2409
3025	0.2801
3034	0.2979
3043	0.3398
3052	0.3345
3061	0.3041
3070	0.2185
3079	0.2069
3088	0.2356
3097	0.2331
3106	0.2066
3115	0.3513
3124	0.493
3133	0.5834
3142	0.7129
3151	0.7729
3160	0.7999
3169	0.8189
3178	0.8409
3187	0.8513
3196	0.8562
3205	0.8563
3214	0.8562
3223	0.8563
3232	0.8562
3241	0.8565
3250	0.8574
3259	0.8577
3268	0.8576
3277	0.8572
3286	0.8568
3295	0.8563
3304	0.8559
3313	0.8553
3322	0.8547
3331	0.8542
3340	0.8539
3349	0.8532
3358	0.8519
3367	0.8496
3376	0.8482
3385	0.8478
3394	0.8479
3403	0.8487
3412	0.8503
3421	0.8523
3430	0.8544
3439	0.8555
3448	0.8561
3457	0.8558
3466	0.8557
3475	0.855
3484	0.8525
3493	0.8488
3502	0.8465
3511	0.8459
3520	0.8473
3529	0.8509
3538	0.8555
3547	0.8616
3556	0.8658
3565	0.8674
3574	0.8679
3583	0.8679
3592	0.8676
3601	0.8667
3610	0.8657
3619	0.8651
3628	0.8677
3637	0.8658
3646	0.863
3655	0.8667
3664	0.8689
3673	0.862
3682	0.8573
3691	0.8604
3700	0.8646
3709	0.868
3718	0.8711
3727	0.873
3736	0.8701
3745	0.8635
3754	0.8609
3763	0.8599
3772	0.8623
3781	0.865
3790	0.8631
