Infrared Spectrum: propane
Formula: C3 H8
CAS: 74-98-6
State: GAS
Class: COBLENTZ
Instrument: DOW KBr FOREPRISM-GRATING
Instrument parameters: GRATING CHANGED AT 5.0, 7.5, 15.0 MICRON
Sampling: TRANSMISSION
Path length: 5 CM
Resolution: 2
Origin: DOW CHEMICAL COMPANY
1/CM	TRANSMITTANCE
457	0.8944
466	0.8974
475	0.9033
484	0.9149
493	0.9243
502	0.9287
511	0.929
520	0.9289
529	0.9275
538	0.9244
547	0.917
556	0.9146
565	0.9205
574	0.928
583	0.9335
592	0.9373
601	0.9398
610	0.9413
619	0.9367
628	0.9349
637	0.9381
646	0.9486
655	0.9502
664	0.9463
673	0.9555
682	0.9436
691	0.9324
700	0.9141
709	0.8924
718	0.8676
727	0.8389
736	0.8108
745	0.8002
754	0.7198
763	0.7931
772	0.8077
781	0.8207
790	0.8378
799	0.8584
808	0.8707
817	0.8729
826	0.8706
835	0.8651
844	0.8576
853	0.8518
862	0.8473
871	0.8575
880	0.8393
889	0.846
898	0.8438
907	0.8074
916	0.8153
925	0.7861
934	0.8195
943	0.822
952	0.8549
961	0.8746
970	0.8775
979	0.8775
988	0.8761
997	0.8751
1006	0.8742
1015	0.8738
1024	0.87
1033	0.8519
1042	0.8343
1051	0.8393
1060	0.8478
1069	0.8072
1078	0.8468
1087	0.8736
1096	0.8762
1105	0.8754
1114	0.871
1123	0.8635
1132	0.8523
1141	0.8405
1150	0.8335
1159	0.8493
1168	0.8107
1177	0.8313
1186	0.8539
1195	0.8641
1204	0.8761
1213	0.8839
1222	0.8871
1231	0.8884
1240	0.8829
1249	0.8844
1258	0.8886
1267	0.8915
1276	0.8954
1285	0.9005
1294	0.9059
1303	0.9046
1312	0.8748
1321	0.8285
1330	0.7999
1339	0.753
1348	0.8062
1357	0.6864
1366	0.6508
1375	0.6805
1384	0.6875
1393	0.5326
1402	0.6157
1411	0.7296
1420	0.7315
1429	0.6849
1438	0.592
1447	0.5005
1456	0.4141
1465	0.4619
1474	0.1791
1483	0.4564
1492	0.455
1501	0.5251
1510	0.624
1519	0.7051
1528	0.7772
1537	0.8364
1546	0.8732
1555	0.8868
1564	0.901
1573	0.8965
1582	0.8954
1591	0.8905
1600	0.8905
1609	0.8911
1618	0.893
1627	0.8835
1636	0.8859
1645	0.8764
1654	0.8867
1663	0.8786
1672	0.8832
1681	0.8781
1690	0.8785
1699	0.8797
1708	0.876
1717	0.8826
1726	0.8792
1735	0.8917
1744	0.8876
1753	0.8881
1762	0.8869
1771	0.8885
1780	0.8833
1789	0.8835
1798	0.884
1807	0.8845
1816	0.8845
1825	0.884
1834	0.8838
1843	0.8858
1852	0.8855
1861	0.8862
1870	0.8874
1879	0.888
1888	0.8866
1897	0.8854
1906	0.8845
1915	0.8816
1924	0.8787
1933	0.8781
1942	0.88
1951	0.8821
1960	0.8829
1969	0.8858
1978	0.888
1987	0.8877
1996	0.8872
2005	0.8864
2014	0.8853
2023	0.8843
2032	0.884
2041	0.8835
2050	0.8834
2059	0.8832
2068	0.8834
2077	0.8838
2086	0.8847
2095	0.8855
2104	0.8853
2113	0.8846
2122	0.884
2131	0.883
2140	0.882
2149	0.8807
2158	0.8794
2167	0.8779
2176	0.8766
2185	0.8751
2194	0.874
2203	0.873
2212	0.8721
2221	0.871
2230	0.8696
2239	0.8683
2248	0.8678
2257	0.8676
2266	0.8731
2275	0.8797
2284	0.8809
2293	0.8814
2302	0.8822
2311	0.8846
2320	0.8912
2329	0.8965
2338	0.8963
2347	0.8941
2356	0.8937
2365	0.892
2374	0.8785
2383	0.8704
2392	0.8367
2401	0.8519
2410	0.8762
2419	0.8764
2428	0.8756
2437	0.8756
2446	0.8746
2455	0.8737
2464	0.8753
2473	0.8749
2482	0.8735
2491	0.872
2500	0.8724
2509	0.8741
2518	0.8759
2527	0.8778
2536	0.8795
2545	0.8792
2554	0.8777
2563	0.8749
2572	0.8709
2581	0.8671
2590	0.8619
2599	0.8552
2608	0.8472
2617	0.8404
2626	0.8375
2635	0.8321
2644	0.8322
2653	0.8368
2662	0.8384
2671	0.8382
2680	0.8467
2689	0.8544
2698	0.8564
2707	0.8512
2716	0.8401
2725	0.8182
2734	0.7995
2743	0.7727
2752	0.7766
2761	0.7619
2770	0.7792
2779	0.7668
2788	0.7606
2797	0.761
2806	0.75
2815	0.7298
2824	0.6816
2833	0.6039
2842	0.5699
2851	0.3694
2860	0.1999
2869	0.0435
2878	0.0754
2887	0.0452
2896	0.0204
2905	0.0258
2914	0.0294
2923	0.0175
2932	0.0081
2941	0.004
2950	0.0029
2959	0.0027
2968	0.0027
2977	0.0028
2986	0.0049
2995	0.0136
3004	0.0564
3013	0.3059
3022	0.5754
3031	0.7553
3040	0.8295
3049	0.8433
3058	0.8481
3067	0.8481
3076	0.8471
3085	0.8453
3094	0.8418
3103	0.837
3112	0.8318
3121	0.8262
3130	0.8184
3139	0.8105
3148	0.8028
3157	0.7948
3166	0.7862
3175	0.7796
3184	0.7773
3193	0.7941
3202	0.8045
3211	0.8133
3220	0.8232
3229	0.8347
3238	0.8459
3247	0.856
3256	0.8643
3265	0.8684
3274	0.8694
3283	0.8692
3292	0.8682
3301	0.8656
3310	0.862
3319	0.853
3328	0.8516
3337	0.85
3346	0.8484
3355	0.855
3364	0.8641
3373	0.8711
3382	0.8721
3391	0.8722
3400	0.8724
3409	0.8725
3418	0.8725
3427	0.8727
3436	0.8732
3445	0.8738
3454	0.8751
3463	0.8764
3472	0.8774
3481	0.8784
3490	0.8794
3499	0.8806
3508	0.8817
3517	0.8825
3526	0.8831
3535	0.8837
3544	0.8872
3553	0.8844
3562	0.8849
3571	0.8854
3580	0.886
3589	0.8862
3598	0.8863
3607	0.8862
3616	0.8846
3625	0.8831
3634	0.8811
3643	0.8791
3652	0.8772
3661	0.8746
3670	0.8719
3679	0.8702
3688	0.8743
3697	0.8783
3706	0.8815
3715	0.8848
3724	0.8883
3733	0.8889
3742	0.8844
3751	0.88
3760	0.8755
3769	0.8704
3778	0.8678
