Infrared Spectrum: SULFUR DIOXIDE
Formula: O2 S
CAS: 7446-09-5
State: GAS
Class: COBLENTZ
Instrument: PERKIN-ELMER 180
Instrument parameters: I0 MODE
Sampling: TRANSMISSION
Path length: 1 CM
Resolution: 1 CM^-^1 AT 4000
Origin: DOW CHEMICAL COMPANY
1/CM	TRANSMITTANCE
270.054	0
280.649	0
291.243	0
301.838	0
312.432	0.01
323.027	0.025
333.622	0.058
344.216	0.111
354.811	0.179
365.406	0.248
376	0.328
386.595	0.4029
397.189	0.471
407.784	0.554
418.379	0.6229
428.973	0.677
439.568	0.719
450.163	0.745
460.757	0.76
471.352	0.76
481.946	0.743
492.541	0.706
503.136	0.691
513.73	0.777
524.325	0.7251
534.919	0.716
545.514	0.772
556.109	0.8139
566.703	0.837
577.298	0.852
587.893	0.868
598.487	0.879
609.082	0.888
619.676	0.891
630.271	0.893
640.866	0.896
651.46	0.9
662.055	0.902
672.65	0.902
683.244	0.902
693.839	0.903
704.433	0.905
715.028	0.9
725.623	0.905
736.217	0.911
746.812	0.908
757.406	0.911
768.001	0.915
778.596	0.918
789.19	0.915
799.785	0.914
810.38	0.917
820.974	0.912
831.569	0.912
842.163	0.911
852.758	0.909
863.353	0.905
873.947	0.909
884.542	0.903
895.137	0.905
905.731	0.903
916.326	0.903
926.92	0.9
937.515	0.9
948.11	0.902
958.704	0.9
969.299	0.899
979.893	0.899
990.488	0.899
1001.08	0.893
1011.68	0.884
1022.27	0.884
1032.87	0.884
1043.46	0.884
1054.06	0.884
1064.65	0.885
1075.25	0.879
1085.84	0.873
1096.43	0.865
1107.03	0.847
1117.62	0.825
1128.22	0.787
1138.81	0.743
1149.41	0.781
1160	0.7961
1170.6	0.728
1181.19	0.772
1191.79	0.816
1202.38	0.829
1212.98	0.858
1223.57	0.871
1234.16	0.881
1244.76	0.888
1255.35	0.89
1265.95	0.89
1276.54	0.891
1287.14	0.893
1297.73	0.893
1308.33	0.89
1318.92	0.841
1329.52	0.667
1340.11	0.3192
1350.71	0.135
1361.3	0.179
1371.89	0.1421
1382.49	0.1489
1393.08	0.57
1403.68	0.8519
1414.27	0.888
1424.87	0.888
1435.46	0.888
1446.06	0.891
1456.65	0.888
1467.25	0.884
1477.84	0.885
1488.44	0.891
1499.03	0.897
1509.62	0.897
1520.22	0.899
1530.81	0.897
1541.41	0.894
1552	0.893
1562.6	0.89
1573.19	0.891
1583.79	0.888
1594.38	0.89
1604.98	0.888
1615.57	0.888
1626.17	0.887
1636.76	0.882
1647.35	0.888
1657.95	0.884
1668.54	0.893
1679.14	0.893
1689.73	0.893
1700.33	0.891
1710.92	0.891
1721.52	0.893
1732.11	0.893
1742.71	0.893
1753.3	0.896
1763.9	0.897
1774.49	0.899
1785.08	0.899
1795.68	0.9
1806.27	0.899
1816.87	0.897
1827.46	0.9
1838.06	0.9
1848.65	0.9
1859.25	0.899
1869.84	0.897
1880.44	0.899
1891.03	0.899
1901.63	0.897
1912.22	0.896
1922.81	0.899
1933.41	0.897
1944	0.894
1954.6	0.899
1965.19	0.894
1975.79	0.893
1986.38	0.891
1996.98	0.894
2007.57	0.904
2018.17	0.908
2028.76	0.903
2039.36	0.902
2049.95	0.903
2060.54	0.903
2071.14	0.903
2081.73	0.903
2092.33	0.903
2102.92	0.903
2113.52	0.902
2124.11	0.9031
2134.71	0.9026
2145.3	0.9
2155.9	0.903
2166.49	0.905
2177.09	0.9041
2187.68	0.9001
2198.27	0.9017
2208.87	0.8991
2219.46	0.899
2230.06	0.899
2240.65	0.9
2251.25	0.899
2261.84	0.897
2272.44	0.897
2283.03	0.897
2293.63	0.897
2304.22	0.894
2314.82	0.894
2325.41	0.894
2336	0.893
2346.6	0.893
2357.19	0.894
2367.79	0.894
2378.38	0.894
2388.98	0.894
2399.57	0.894
2410.17	0.894
2420.76	0.894
2431.36	0.8937
2441.95	0.893
2452.55	0.888
2463.14	0.8795
2473.73	0.8681
2484.33	0.858
2494.92	0.8643
2505.52	0.8532
2516.11	0.8654
2526.71	0.8908
2537.3	0.8924
2547.9	0.891
2558.49	0.894
2569.09	0.891
2579.68	0.891
2590.28	0.8938
2600.87	0.8925
2611.46	0.891
2622.06	0.891
2632.65	0.891
2643.25	0.89
2653.84	0.888
2664.44	0.8885
2675.03	0.89
2685.63	0.89
2696.22	0.89
2706.82	0.89
2717.41	0.888
2728.01	0.8895
2738.6	0.8855
2749.19	0.885
2759.79	0.885
2770.38	0.888
2780.98	0.888
2791.57	0.888
2802.17	0.8856
2812.76	0.882
2823.36	0.882
2833.95	0.8818
2844.55	0.8783
2855.14	0.876
2865.74	0.879
2876.33	0.881
2886.92	0.881
2897.52	0.879
2908.11	0.8753
2918.71	0.868
2929.3	0.8723
2939.9	0.8782
2950.49	0.879
2961.09	0.881
2971.68	0.881
2982.28	0.882
2992.87	0.882
3003.47	0.884
3014.06	0.884
3024.66	0.884
3035.25	0.884
3045.84	0.884
3056.44	0.884
3067.03	0.882
3077.63	0.882
3088.22	0.8819
3098.82	0.881
3109.41	0.8808
3120.01	0.879
3130.6	0.878
3141.2	0.878
3151.79	0.878
3162.39	0.876
3172.98	0.876
3183.57	0.875
3194.17	0.875
3204.76	0.875
3215.36	0.875
3225.95	0.875
3236.55	0.873
3247.14	0.8719
3257.74	0.871
3268.33	0.871
3278.93	0.87
3289.52	0.8691
3300.12	0.87
3310.71	0.8689
3321.3	0.865
3331.9	0.867
3342.49	0.864
3353.09	0.864
3363.68	0.865
3374.28	0.865
3384.87	0.865
3395.47	0.865
3406.06	0.864
3416.66	0.864
3427.25	0.864
3437.85	0.864
3448.44	0.865
3459.03	0.867
3469.63	0.867
3480.22	0.868
3490.82	0.87
3501.41	0.87
3512.01	0.871
3522.6	0.871
3533.2	0.871
3543.79	0.871
3554.39	0.873
3564.98	0.876
3575.58	0.876
3586.17	0.876
3596.76	0.876
3607.36	0.876
3617.95	0.876
3628.55	0.876
3639.14	0.876
3649.74	0.8784
3660.33	0.879
3670.93	0.878
3681.52	0.878
3692.12	0.881
3702.71	0.8819
3713.31	0.882
3723.9	0.885
3734.49	0.8918
3745.09	0.896
3755.68	0.8964
3766.28	0.897
3776.87	0.9
3787.47	0.902
3798.06	0.902
3808.66	0.9003
3819.25	0.899
3829.85	0.899
3840.44	0.899
3851.04	0.899
3861.63	0.899
3872.22	0.9
3882.82	0.899
3893.41	0.897
3904.01	0.897
3914.6	0.897
3925.2	0.8979
3935.79	0.9
3946.39	0.8984
3956.98	0.899
3967.58	0.899
3978.17	0.899
3988.77	0.9014
3999.36	0.8992
