Infrared Spectrum: Toluene
Formula: C7 H8
CAS: 108-88-3
State: GAS
Class: COBLENTZ
Instrument: DOW KBr FOREPRISM-GRATING
Instrument parameters: GRATING CHANGED AT 5.0, 7.5, 15.0 MICRON
Sampling: TRANSMISSION
Path length: 5 CM
Resolution: 2
Origin: DOW CHEMICAL COMPANY
1/CM	TRANSMITTANCE
456	0.7972
465	0.7848
474	0.8325
483	0.8454
492	0.8659
501	0.8726
510	0.8715
519	0.8659
528	0.8591
537	0.8617
546	0.8647
555	0.8678
564	0.8708
573	0.8738
582	0.8754
591	0.8761
600	0.8763
609	0.8752
618	0.8739
627	0.8721
636	0.8701
645	0.8662
654	0.8614
663	0.8547
672	0.8238
681	0.7509
690	0.699
699	0.4876
708	0.6343
717	0.557
726	0.4167
735	0.3786
744	0.5299
753	0.7193
762	0.8291
771	0.8403
780	0.8401
789	0.8459
798	0.839
807	0.841
816	0.8369
825	0.838
834	0.8315
843	0.8388
852	0.8423
861	0.8439
870	0.845
879	0.8458
888	0.8397
897	0.8401
906	0.8449
915	0.8447
924	0.8438
933	0.8453
942	0.8475
951	0.8537
960	0.8548
969	0.854
978	0.8523
987	0.8502
996	0.8478
1005	0.8454
1014	0.8409
1023	0.8292
1032	0.8038
1041	0.7986
1050	0.8116
1059	0.8051
1068	0.7928
1077	0.7815
1086	0.7965
1095	0.8075
1104	0.8283
1113	0.8316
1122	0.8454
1131	0.8508
1140	0.8495
1149	0.8471
1158	0.8445
1167	0.843
1176	0.8368
1185	0.8356
1194	0.8403
1203	0.8395
1212	0.8353
1221	0.8328
1230	0.8383
1239	0.8418
1248	0.8385
1257	0.8371
1266	0.8394
1275	0.8395
1284	0.8386
1293	0.8377
1302	0.8353
1311	0.833
1320	0.8317
1329	0.8307
1338	0.8296
1347	0.8287
1356	0.8324
1365	0.8265
1374	0.8042
1383	0.7804
1392	0.778
1401	0.798
1410	0.8076
1419	0.8033
1428	0.8036
1437	0.7951
1446	0.7739
1455	0.7522
1464	0.7457
1473	0.7514
1482	0.7596
1491	0.7137
1500	0.6405
1509	0.6433
1518	0.7217
1527	0.7788
1536	0.7816
1545	0.7927
1554	0.8076
1563	0.8039
1572	0.8093
1581	0.804
1590	0.805
1599	0.7739
1608	0.7356
1617	0.7256
1626	0.7671
1635	0.8047
1644	0.8278
1653	0.8277
1662	0.8277
1671	0.8276
1680	0.8291
1689	0.83
1698	0.8326
1707	0.8317
1716	0.829
1725	0.8257
1734	0.824
1743	0.8255
1752	0.832
1761	0.8298
1770	0.8255
1779	0.8198
1788	0.8131
1797	0.807
1806	0.8102
1815	0.8178
1824	0.8278
1833	0.8276
1842	0.8222
1851	0.8148
1860	0.8058
1869	0.8116
1878	0.8176
1887	0.8287
1896	0.8319
1905	0.8315
1914	0.8296
1923	0.826
1932	0.815
1941	0.8117
1950	0.8051
1959	0.8187
1968	0.8281
1977	0.8389
1986	0.8381
1995	0.8378
2004	0.8387
2013	0.8391
2022	0.8394
2031	0.8394
2040	0.8392
2049	0.8394
2058	0.8401
2067	0.8406
2076	0.8411
2085	0.8415
2094	0.842
2103	0.8425
2112	0.8431
2121	0.8436
2130	0.8442
2139	0.8446
2148	0.8451
2157	0.8455
2166	0.846
2175	0.847
2184	0.8483
2193	0.8492
2202	0.8501
2211	0.8503
2220	0.8506
2229	0.8508
2238	0.8511
2247	0.8515
2256	0.852
2265	0.8526
2274	0.8534
2283	0.8543
2292	0.8553
2301	0.8565
2310	0.8577
2319	0.86
2328	0.8626
2337	0.864
2346	0.8626
2355	0.8661
2364	0.8699
2373	0.8653
2382	0.8586
2391	0.8565
2400	0.8556
2409	0.856
2418	0.8562
2427	0.8562
2436	0.8568
2445	0.8572
2454	0.8576
2463	0.8578
2472	0.8576
2481	0.8575
2490	0.858
2499	0.8585
2508	0.8591
2517	0.8594
2526	0.8596
2535	0.8598
2544	0.8595
2553	0.8589
2562	0.8582
2571	0.8575
2580	0.8571
2589	0.8569
2598	0.8573
2607	0.8586
2616	0.8599
2625	0.861
2634	0.8623
2643	0.863
2652	0.8634
2661	0.8635
2670	0.8636
2679	0.8632
2688	0.8629
2697	0.8621
2706	0.8608
2715	0.859
2724	0.8558
2733	0.8521
2742	0.8498
2751	0.8505
2760	0.8563
2769	0.8622
2778	0.8644
2787	0.8633
2796	0.8628
2805	0.8608
2814	0.8575
2823	0.8541
2832	0.851
2841	0.8481
2850	0.8393
2859	0.8128
2868	0.7799
2877	0.7349
2886	0.7204
2895	0.7454
2904	0.7733
2913	0.7673
2922	0.6745
2931	0.6213
2940	0.6181
2949	0.6662
2958	0.7311
2967	0.7591
2976	0.768
2985	0.7546
2994	0.7378
3003	0.712
3012	0.6881
3021	0.6447
3030	0.529
3039	0.4607
3048	0.4872
3057	0.6269
3066	0.6182
3075	0.5989
3084	0.608
3093	0.6495
3102	0.7069
3111	0.7444
3120	0.7864
3129	0.8135
3138	0.8449
3147	0.8577
3156	0.8603
3165	0.8619
3174	0.8615
3183	0.8599
3192	0.862
3201	0.8647
3210	0.867
3219	0.8668
3228	0.8658
3237	0.865
3246	0.8648
3255	0.8646
3264	0.8645
3273	0.865
3282	0.8656
3291	0.8661
3300	0.8667
3309	0.8672
3318	0.8678
3327	0.8683
3336	0.8689
3345	0.8693
3354	0.8698
3363	0.8702
3372	0.8707
3381	0.8712
3390	0.8719
3399	0.8726
3408	0.8734
3417	0.8741
3426	0.8746
3435	0.875
3444	0.8755
3453	0.8759
3462	0.8764
3471	0.8768
3480	0.8769
3489	0.8771
3498	0.8773
3507	0.8775
3516	0.8775
3525	0.8776
3534	0.8776
3543	0.8776
3552	0.8776
3561	0.8773
3570	0.877
3579	0.8767
3588	0.8764
3597	0.8761
3606	0.8759
3615	0.8756
3624	0.8754
3633	0.8751
3642	0.8747
3651	0.8742
3660	0.8738
3669	0.873
3678	0.8717
3687	0.8712
3696	0.8718
3705	0.8725
3714	0.8727
3723	0.8724
3732	0.8723
3741	0.8721
3750	0.8719
3759	0.8717
3768	0.8727
3777	0.8738
