Infrared Spectrum: vinyl chloride
Formula: C2 H3 Cl
CAS: 75-01-4
State: GAS
Class: COBLENTZ III
Instrument: BECKMAN IR-9 (GRATING)
Instrument parameters: ORDER CHANGES AT 670, 1200, 2000 CM^-^1
Sampling: TRANSMISSION
Path length: 10 CM
Resolution: 4
Origin: DOW CHEMICAL COMPANY
1/CM	TRANSMITTANCE
399.095	0.009
408.15	0
417.205	0
426.26	0
435.315	0
444.37	0
453.424	0
462.479	0
471.534	0
480.589	0
489.644	0.002
498.699	0.012
507.754	0.015
516.809	0.012
525.864	0.016
534.919	0.033
543.973	0.052
553.028	0.072
562.083	0.097
571.138	0.124
580.193	0.157
589.248	0.216
598.303	0.26
607.358	0.314
616.413	0.349
625.468	0.407
634.522	0.456
643.577	0.505
652.632	0.575
661.687	0.631
670.742	0.669
679.797	0.726
688.852	0.746
697.907	0.655
706.962	0.488
716.017	0.492
725.071	0.463
734.126	0.433
743.181	0.8
752.236	0.9
761.291	0.915
770.346	0.933
779.401	0.941
788.456	0.949
797.511	0.956
806.566	0.958
815.621	0.96
824.675	0.96
833.73	0.957
842.785	0.944
851.84	0.907
860.895	0.9029
869.95	0.8589
879.005	0.787
888.06	0.796
897.115	0.3722
906.17	0.699
915.224	0.655
924.279	0.718
933.334	0.7109
942.389	0.349
951.444	0.729
960.499	0.7122
969.554	0.787
978.609	0.808
987.664	0.871
996.719	0.903
1005.77	0.924
1014.83	0.8319
1023.88	0.706
1032.94	0.791
1041.99	0.767
1051.05	0.861
1060.1	0.944
1069.16	0.963
1078.21	0.961
1087.27	0.961
1096.32	0.96
1105.38	0.958
1114.43	0.958
1123.49	0.954
1132.54	0.957
1141.6	0.956
1150.65	0.958
1159.71	0.957
1168.76	0.96
1177.82	0.96
1186.87	0.96
1195.93	0.961
1204.98	0.966
1214.04	0.963
1223.09	0.957
1232.15	0.958
1241.2	0.95
1250.26	0.949
1259.31	0.913
1268.37	0.831
1277.42	0.856
1286.48	0.838
1295.53	0.837
1304.59	0.927
1313.64	0.953
1322.7	0.954
1331.75	0.953
1340.8	0.937
1349.86	0.9259
1358.91	0.872
1367.97	0.922
1377.02	0.882
1386.08	0.873
1395.13	0.917
1404.19	0.934
1413.24	0.943
1422.3	0.943
1431.35	0.946
1440.41	0.949
1449.46	0.951
1458.52	0.946
1467.57	0.951
1476.63	0.957
1485.68	0.964
1494.74	0.95
1503.79	0.937
1512.85	0.941
1521.9	0.912
1530.96	0.939
1540.01	0.95
1549.07	0.957
1558.12	0.957
1567.18	0.95
1576.23	0.913
1585.29	0.8199
1594.34	0.4999
1603.4	0.4071
1612.45	0.652
1621.51	0.339
1630.56	0.6771
1639.62	0.898
1648.67	0.917
1657.73	0.947
1666.78	0.956
1675.84	0.943
1684.89	0.93
1693.95	0.958
1703	0.95
1712.06	0.947
1721.11	0.94
1730.17	0.95
1739.22	0.951
1748.28	0.95
1757.33	0.957
1766.39	0.96
1775.44	0.949
1784.5	0.946
1793.55	0.94
1802.6	0.944
1811.66	0.946
1820.71	0.954
1829.77	0.956
1838.82	0.964
1847.88	0.954
1856.93	0.961
1865.99	0.961
1875.04	0.961
1884.1	0.961
1893.15	0.963
1902.21	0.971
1911.26	0.971
1920.32	0.97
1929.37	0.971
1938.43	0.973
1947.48	0.973
1956.54	0.971
1965.59	0.971
1974.65	0.97
1983.7	0.971
1992.76	0.967
2001.81	0.957
2010.87	0.973
2019.92	0.973
2028.98	0.973
2038.03	0.974
2047.09	0.974
2056.14	0.9751
2065.2	0.974
2074.25	0.9729
2083.31	0.975
2092.36	0.974
2101.42	0.9779
2110.47	0.975
2119.53	0.977
2128.58	0.9768
2137.64	0.973
2146.69	0.975
2155.75	0.9731
2164.8	0.975
2173.86	0.9741
2182.91	0.974
2191.97	0.974
2201.02	0.974
2210.08	0.974
2219.13	0.974
2228.19	0.974
2237.24	0.9749
2246.3	0.975
2255.35	0.973
2264.4	0.973
2273.46	0.9736
2282.51	0.973
2291.57	0.9766
2300.62	0.977
2309.68	0.9738
2318.73	0.974
2327.79	0.974
2336.84	0.977
2345.9	0.977
2354.95	0.978
2364.01	0.9772
2373.06	0.9796
2382.12	0.9784
2391.17	0.9754
2400.23	0.9726
2409.28	0.975
2418.34	0.971
2427.39	0.971
2436.45	0.971
2445.5	0.974
2454.56	0.9755
2463.61	0.9732
2472.67	0.9725
2481.72	0.9718
2490.78	0.9747
2499.83	0.973
2508.89	0.973
2517.94	0.9715
2527	0.9733
2536.05	0.971
2545.11	0.97
2554.16	0.973
2563.22	0.9716
2572.27	0.971
2581.33	0.973
2590.38	0.968
2599.44	0.968
2608.49	0.97
2617.55	0.97
2626.6	0.968
2635.66	0.97
2644.71	0.97
2653.77	0.97
2662.82	0.971
2671.88	0.9687
2680.93	0.9693
2689.99	0.971
2699.04	0.968
2708.1	0.97
2717.15	0.968
2726.21	0.9706
2735.26	0.968
2744.31	0.967
2753.37	0.967
2762.42	0.9688
2771.48	0.9688
2780.53	0.967
2789.59	0.9692
2798.64	0.968
2807.7	0.968
2816.75	0.967
2825.81	0.966
2834.86	0.9664
2843.92	0.961
2852.97	0.9574
2862.03	0.957
2871.08	0.96
2880.14	0.9589
2889.19	0.96
2898.25	0.9575
2907.3	0.954
2916.36	0.948
2925.41	0.944
2934.47	0.944
2943.52	0.948
2952.58	0.947
2961.63	0.949
2970.69	0.949
2979.74	0.952
2988.8	0.956
2997.85	0.9575
3006.91	0.96
3015.96	0.958
3025.02	0.954
3034.07	0.951
3043.13	0.9481
3052.18	0.9465
3061.24	0.95
3070.29	0.9452
3079.35	0.9194
3088.4	0.9081
3097.46	0.9247
3106.51	0.8869
3115.57	0.8994
3124.62	0.9183
3133.68	0.9237
3142.73	0.9161
3151.79	0.938
3160.84	0.9466
3169.9	0.9494
3178.95	0.949
3188.01	0.95
3197.06	0.95
3206.11	0.949
3215.17	0.9477
3224.22	0.9466
3233.28	0.9447
3242.33	0.9423
3251.39	0.941
3260.44	0.9423
3269.5	0.9407
3278.55	0.939
3287.61	0.939
3296.66	0.934
3305.72	0.9327
3314.77	0.929
3323.83	0.926
3332.88	0.923
3341.94	0.9191
3350.99	0.9157
3360.05	0.9114
3369.1	0.9057
3378.16	0.9014
3387.21	0.8957
3396.27	0.89
3405.32	0.886
3414.38	0.885
3423.43	0.888
3432.49	0.892
3441.54	0.8935
3450.6	0.9
3459.65	0.903
3468.71	0.906
3477.76	0.912
3486.82	0.913
3495.87	0.916
3504.93	0.92
3513.98	0.923
3523.04	0.9238
3532.09	0.923
3541.15	0.9262
3550.2	0.929
3559.26	0.929
3568.31	0.929
3577.37	0.9244
3586.42	0.933
3595.48	0.923
3604.53	0.9317
3613.59	0.9325
3622.64	0.926
3631.7	0.9298
3640.75	0.9274
3649.81	0.9299
3658.86	0.9136
3667.91	0.9304
3676.97	0.9229
3686.02	0.9244
3695.08	0.922
3704.13	0.93
3713.19	0.927
3722.24	0.9243
3731.3	0.929
3740.35	0.9195
3749.41	0.9193
3758.46	0.9074
3767.52	0.923
3776.57	0.9238
3785.63	0.923
3794.68	0.9259
