Infrared Spectrum: 1-Butene
Formula: C 4 H 8
CAS: 106-98-9
State: gas
Origin: Sadtler Research Labs Under US-EPA Contract
1/CM	ABSORBANCE
450	0.000947565
462	0.00543271
474	0.000315855
486	0.00221098
498	0.0034744
510	0.00328489
522	0.0107391
534	0.0146557
546	0.0210359
558	0.0142766
570	0.0111181
582	0.0138976
594	0.0183828
606	0.0287428
618	0.0398609
630	0.0449778
642	0.0435248
654	0.0327857
666	0.024005
678	0.0145925
690	0.0113076
702	0.00795955
714	0.00650661
726	0.00581173
738	0.00366392
750	0.00410611
762	0.00612759
774	0.00840174
786	0.0130764
798	0.0145925
810	0.0170562
822	0.0171825
834	0.022552
846	0.0276057
858	0.0360075
870	0.0516107
882	0.089766
894	0.153885
906	0.197788
918	0.233101
930	0.215034
942	0.14782
954	0.0917875
966	0.0785847
978	0.0947565
990	0.114403
1002	0.116993
1014	0.0800377
1026	0.050979
1038	0.0329753
1050	0.0254579
1062	0.0235628
1074	0.0245735
1086	0.0235628
1098	0.0206569
1110	0.018825
1122	0.0150979
1134	0.011813
1146	0.00985468
1158	0.00808589
1170	0.00966516
1182	0.00840174
1194	0.00739101
1206	0.00473782
1218	0.00410611
1230	0.004801
1242	0.00562222
1254	0.00530636
1266	0.00726466
1278	0.0116235
1290	0.0150347
1302	0.0219203
1314	0.0231206
1326	0.0196462
1338	0.0163613
1350	0.0126342
1362	0.0171825
1374	0.0234364
1386	0.0289323
1398	0.0427036
1410	0.0511053
1422	0.0572329
1434	0.0818696
1446	0.0817433
1458	0.0917243
1470	0.0737206
1482	0.0571698
1494	0.0398609
1506	0.0234996
1518	0.0145925
1530	0.0106759
1542	0.0100442
1554	0.00789637
1566	0.0058749
1578	0.00524319
1590	0.00612759
1602	0.0123815
1614	0.0297535
1626	0.0732152
1638	0.0953882
1650	0.0947565
1662	0.0704357
1674	0.0175615
1686	0.0121288
1698	0.00777003
1710	0.00555905
1722	0.00448514
1734	0.00284269
1746	0.00221098
1758	0.00183196
1770	0.00157927
1782	0.00214781
1794	0.00442197
1806	0.0105496
1818	0.0229942
1830	0.0234996
1842	0.0266582
1854	0.0116235
1866	0.00511685
1878	0.00322172
1890	0.00214781
1902	0.00145293
1914	0.00126342
1926	0.000884394
1938	0.00138976
1950	0.00208464
1962	0.00303221
1974	0.00328489
1986	0.00328489
1998	0.00170562
2010	0.00120025
2022	0.000758052
2034	0.000947565
2046	0.00132659
2058	0.0015161
2070	0.0015161
2082	0.000758052
2094	0.00063171
2106	0.000189513
2118	0.000252684
2130	0.000189513
2142	0.000126342
2154	0.000379026
2166	0.000379026
2178	0.000126342
2190	0.000315855
2202	0.000315855
2214	0.000189513
2226	0.000505368
2238	0.000694881
2250	0.00126342
2262	0.00132659
2274	0.00120025
2286	0.00107391
2298	0.000505368
2310	0.000568539
2322	0.00113708
2334	0.000379026
2346	0
2358	0.00120025
2370	0.000442197
2382	0.00101074
2394	0.00101074
2406	0.00170562
2418	0.00107391
2430	0.00145293
2442	0.00145293
2454	0.00208464
2466	0.00170562
2478	0.0015161
2490	0.00126342
2502	0.000758052
2514	0.000505368
2526	0.000821223
2538	0.00107391
2550	0.00145293
2562	0.00208464
2574	0.00227416
2586	0.00227416
2598	0.00233733
2610	0.00214781
2622	0.00221098
2634	0.00170562
2646	0.00202147
2658	0.0024005
2670	0.00246367
2682	0.00290587
2694	0.00296904
2706	0.00366392
2718	0.00536953
2730	0.0082754
2742	0.00998102
2754	0.0120657
2766	0.0105496
2778	0.00998102
2790	0.0106127
2802	0.0133291
2814	0.0205306
2826	0.0359443
2838	0.0612759
2850	0.0896396
2862	0.1247
2874	0.204485
2886	0.233859
2898	0.284522
2910	0.290966
2922	0.306695
2934	0.372014
2946	0.401262
2958	0.524635
2970	0.620213
2982	0.591786
2994	0.495387
3006	0.305937
3018	0.185975
3030	0.114845
3042	0.0788374
3054	0.0773845
3066	0.106317
3078	0.16456
3090	0.16197
3102	0.14264
3114	0.0775108
3126	0.0357548
3138	0.0198357
3150	0.0133923
3162	0.011434
3174	0.0108654
3186	0.0106759
3198	0.00991785
3210	0.00732784
3222	0.00555905
3234	0.0034744
3246	0.00233733
3258	0.00189513
3270	0.00221098
3282	0.00208464
3294	0.00221098
3306	0.0015161
3318	0.00170562
3330	0.00138976
3342	0.00101074
3354	0.00157927
3366	0.00227416
3378	0.00157927
3390	0.00170562
3402	0.00202147
3414	0.00157927
3426	0.00145293
3438	0.000884394
3450	0.00189513
3462	0.00164245
3474	0.00145293
3486	0.00107391
3498	0.00113708
3510	0.000694881
3522	0.00138976
3534	0.00113708
3546	0.000947565
3558	0.00164245
3570	0.000947565
3582	0.000442197
3594	0.000379026
3606	0.00170562
3618	0.000758052
3630	0.00063171
3642	0.000252684
3654	0.00107391
3666	0.000568539
3678	0.0015161
3690	0.00164245
3702	0.00157927
3714	0.00227416
3726	0.00170562
3738	0.00189513
3750	0.00170562
3762	0.00113708
3774	0.00138976
3786	0.000947565
3798	0.00189513
3810	0.000884394
3822	0.00170562
3834	0.00271635
3846	0.000315855
3858	0.000315855
3870	0.000568539
3882	0.0015161
3894	0.000189513
3906	0.00214781
3918	0.00107391
3930	0.00252684
3942	0.00176879
3954	0.00404294
3966	0.00233733
