Infrared Spectrum: Butane
Formula: C4 H10
CAS: 106-97-8
State: GAS
Class: COBLENTZ
Instrument: DOW KBr FOREPRISM-GRATING
Instrument parameters: GRATING CHANGED AT 5.0, 7.5, 15.0 MICRON
Sampling: TRANSMISSION
Path length: 5 CM
Resolution: 2
Origin: DOW CHEMICAL COMPANY
1/CM	TRANSMITTANCE
454	0.9076
463	0.9093
472	0.912
481	0.9202
490	0.9315
499	0.933
508	0.9331
517	0.9326
526	0.9311
535	0.9271
544	0.9216
553	0.9158
562	0.9159
571	0.9193
580	0.9224
589	0.9263
598	0.9307
607	0.933
616	0.9309
625	0.9273
634	0.9244
643	0.922
652	0.9168
661	0.9074
670	0.9019
679	0.8882
688	0.8897
697	0.8821
706	0.8709
715	0.8574
724	0.8395
733	0.7785
742	0.7912
751	0.7795
760	0.8045
769	0.8302
778	0.8544
787	0.8654
796	0.8664
805	0.8744
814	0.8836
823	0.8865
832	0.8879
841	0.8891
850	0.8899
859	0.8893
868	0.8888
877	0.8879
886	0.8871
895	0.886
904	0.884
913	0.8803
922	0.8746
931	0.8589
940	0.8286
949	0.7777
958	0.6807
967	0.6704
976	0.6852
985	0.7534
994	0.8032
1003	0.8441
1012	0.8653
1021	0.8775
1030	0.8834
1039	0.8849
1048	0.8869
1057	0.8843
1066	0.8831
1075	0.882
1084	0.8854
1093	0.8901
1102	0.8916
1111	0.8902
1120	0.8774
1129	0.8603
1138	0.8606
1147	0.857
1156	0.8862
1165	0.8915
1174	0.8893
1183	0.8868
1192	0.8947
1201	0.8961
1210	0.8974
1219	0.8991
1228	0.8993
1237	0.8963
1246	0.8838
1255	0.8755
1264	0.8687
1273	0.8554
1282	0.8222
1291	0.7893
1300	0.7915
1309	0.7898
1318	0.8506
1327	0.8508
1336	0.8269
1345	0.8236
1354	0.8226
1363	0.7964
1372	0.7105
1381	0.5862
1390	0.5755
1399	0.5074
1408	0.7374
1417	0.7708
1426	0.7502
1435	0.7074
1444	0.5237
1453	0.4139
1462	0.3492
1471	0.261
1480	0.3849
1489	0.4042
1498	0.5542
1507	0.6634
1516	0.7675
1525	0.83
1534	0.8481
1543	0.8634
1552	0.8588
1561	0.8793
1570	0.8555
1579	0.8516
1588	0.852
1597	0.8548
1606	0.8574
1615	0.8582
1624	0.8561
1633	0.849
1642	0.8452
1651	0.8454
1660	0.8435
1669	0.8447
1678	0.8469
1687	0.8515
1696	0.8525
1705	0.8572
1714	0.8553
1723	0.8543
1732	0.8601
1741	0.8627
1750	0.863
1759	0.8609
1768	0.859
1777	0.8592
1786	0.8594
1795	0.8585
1804	0.8579
1813	0.8577
1822	0.8586
1831	0.8599
1840	0.861
1849	0.8603
1858	0.8606
1867	0.8628
1876	0.8571
1885	0.8555
1894	0.8537
1903	0.852
1912	0.8525
1921	0.8528
1930	0.8526
1939	0.8535
1948	0.8553
1957	0.8574
1966	0.8589
1975	0.8599
1984	0.86
1993	0.8588
2002	0.855
2011	0.857
2020	0.8563
2029	0.8548
2038	0.8528
2047	0.8515
2056	0.8533
2065	0.8572
2074	0.8597
2083	0.8599
2092	0.8586
2101	0.8568
2110	0.8552
2119	0.8536
2128	0.8522
2137	0.8518
2146	0.8515
2155	0.8515
2164	0.8515
2173	0.8516
2182	0.8516
2191	0.8516
2200	0.8518
2209	0.8521
2218	0.8524
2227	0.8526
2236	0.8528
2245	0.8531
2254	0.8538
2263	0.8536
2272	0.853
2281	0.8519
2290	0.8508
2299	0.851
2308	0.8533
2317	0.8574
2326	0.8608
2335	0.8602
2344	0.859
2353	0.8623
2362	0.8687
2371	0.8618
2380	0.8492
2389	0.8441
2398	0.8429
2407	0.8439
2416	0.8403
2425	0.8378
2434	0.8372
2443	0.8376
2452	0.8413
2461	0.8488
2470	0.8546
2479	0.8581
2488	0.8582
2497	0.8574
2506	0.8561
2515	0.854
2524	0.8515
2533	0.8512
2542	0.8517
2551	0.8518
2560	0.8498
2569	0.8425
2578	0.8326
2587	0.8263
2596	0.8203
2605	0.8157
2614	0.8128
2623	0.8106
2632	0.8088
2641	0.808
2650	0.8035
2659	0.8062
2668	0.8117
2677	0.8129
2686	0.8151
2695	0.8224
2704	0.8211
2713	0.8062
2722	0.7866
2731	0.7601
2740	0.7425
2749	0.734
2758	0.7528
2767	0.7775
2776	0.7828
2785	0.7757
2794	0.7627
2803	0.7419
2812	0.7109
2821	0.6338
2830	0.5807
2839	0.5084
2848	0.3801
2857	0.2076
2866	0.117
2875	0.0239
2884	0.0176
2893	0.0207
2902	0.0255
2911	0.0202
2920	0.0065
2929	0.0022
2938	0.0021
2947	0.0019
2956	0.0018
2965	0.0016
2974	0.0015
2983	0.0018
2992	0.0167
3001	0.1611
3010	0.3285
3019	0.5464
3028	0.6972
3037	0.7197
3046	0.7278
3055	0.749
3064	0.7587
3073	0.7597
3082	0.7604
3091	0.7626
3100	0.7794
3109	0.7988
3118	0.805
3127	0.8052
3136	0.8037
3145	0.7989
3154	0.7916
3163	0.7817
3172	0.7757
3181	0.7771
3190	0.7829
3199	0.793
3208	0.8033
3217	0.8085
3226	0.8116
3235	0.8179
3244	0.8268
3253	0.8345
3262	0.8431
3271	0.8476
3280	0.8483
3289	0.8483
3298	0.848
3307	0.8473
3316	0.8462
3325	0.845
3334	0.8438
3343	0.8427
3352	0.8416
3361	0.8404
3370	0.8393
3379	0.8382
3388	0.8372
3397	0.8372
3406	0.8407
3415	0.8453
3424	0.8491
3433	0.851
3442	0.8526
3451	0.8539
3460	0.8553
3469	0.8565
3478	0.8578
3487	0.8589
3496	0.86
3505	0.8611
3514	0.862
3523	0.8626
3532	0.8633
3541	0.8638
3550	0.864
3559	0.8641
3568	0.8641
3577	0.8628
3586	0.8616
3595	0.859
3604	0.8557
3613	0.8537
3622	0.8525
3631	0.8572
3640	0.8594
3649	0.8555
3658	0.8578
3667	0.856
3676	0.8483
3685	0.8431
3694	0.8438
3703	0.8458
3712	0.8488
3721	0.8532
3730	0.8618
3739	0.8603
3748	0.8552
3757	0.8535
3766	0.8531
3775	0.8533
