Infrared Spectrum: Sulfur hexafluoride
Formula: S F6
CAS: 2551-62-4
State: gas
Melting point: -50.5 C
Boiling point: -63.9 C (sublimes)
Class: IUPAC A
Instrument: IFS66V (Bruker)
Instrument parameters: KBr Beam Splitter; MCT Detector; Multipass cell
Sampling: 1 L/min Flow
Resolution: 0.1250
Temperature: 23 C
Pressure: 101.3 Pa
Origin: NIST, Analytical Chemistry Division, 301-975-3108
cm-1	(micromol/mol)-1m-1 (base 10)
575.049	2.77053e-05
583.607	1.21373e-05
592.164	4.05886e-05
600.722	0.000273554
609.28	0.000206476
617.837	0.000123348
626.395	0.00043021
634.953	0.000141673
643.51	4.63415e-06
652.068	-2.86064e-06
660.625	2.08451e-06
669.183	-5.42093e-06
677.741	1.91385e-07
686.298	-4.32007e-06
694.856	9.10299e-07
703.414	4.02327e-06
711.971	-1.46158e-07
720.529	3.35092e-06
729.087	1.4869e-06
737.644	-5.55062e-07
746.202	3.38462e-06
754.76	2.02921e-06
763.317	-2.50017e-06
771.875	-2.44726e-06
780.432	1.53119e-06
788.99	-3.22787e-06
797.548	-4.24579e-06
806.105	6.05853e-06
814.663	3.41122e-06
823.221	-1.8848e-06
831.778	1.04621e-06
840.336	-2.84865e-06
848.894	8.38548e-06
857.451	9.76137e-06
866.009	1.33657e-05
874.567	1.32983e-05
883.124	2.6717e-05
891.682	8.6931e-06
900.239	2.17054e-06
908.797	4.23642e-06
917.355	2.90387e-05
925.912	0.00071646
934.47	0.000801839
943.028	0.015
951.585	0.00481034
960.143	3.8314e-05
968.701	2.43833e-05
977.258	5.49715e-05
985.816	0.000140547
994.374	0.000101898
1002.93	9.19292e-06
1011.49	-2.58573e-06
1020.05	-1.42211e-06
1028.6	1.28911e-06
1037.16	5.86668e-07
1045.72	1.29022e-06
1054.28	-1.16478e-06
1062.83	-3.92338e-06
1071.39	-3.63503e-07
1079.95	1.51926e-06
1088.51	-6.15609e-06
1097.07	-6.29101e-07
1105.62	-1.03393e-06
1114.18	-2.0763e-06
1122.74	1.26367e-07
1131.3	1.35977e-06
1139.85	6.84281e-07
1148.41	-2.74912e-07
1156.97	-3.22286e-06
1165.53	1.01653e-06
1174.08	1.46682e-08
1182.64	1.33166e-06
1191.2	-2.98951e-07
1199.76	1.49534e-07
1208.31	-4.02676e-06
1216.87	7.26423e-07
1225.43	1.84243e-06
1233.99	-2.20913e-06
1242.55	7.04572e-06
1251.1	1.11407e-05
1259.66	5.92675e-06
1268.22	4.89736e-06
1276.78	2.74661e-06
1285.33	2.15983e-06
1293.89	-1.04185e-06
1302.45	1.0731e-06
1311.01	-3.7462e-07
1319.56	-1.32793e-06
1328.12	2.63363e-06
1336.68	-5.83234e-07
1345.24	7.11639e-07
1353.79	7.10096e-06
1362.35	-6.32652e-07
1370.91	3.74585e-06
1379.47	6.2037e-07
1388.03	1.3753e-05
1396.58	1.37892e-07
1405.14	-1.04499e-06
1413.7	3.49067e-07
1422.26	-1.00349e-06
1430.81	-3.46273e-07
1439.37	1.03486e-06
1447.93	-6.70946e-06
1456.49	-1.69534e-05
1465.04	-3.76885e-06
1473.6	-9.45625e-06
1482.16	-1.96158e-08
1490.72	-5.59486e-06
1499.27	1.44679e-06
1507.83	-2.84778e-06
1516.39	-2.51221e-07
1524.95	-2.07083e-06
1533.51	-1.50494e-06
1542.06	-1.40254e-05
1550.62	2.48847e-06
1559.18	7.49083e-06
1567.74	2.03021e-05
1576.29	1.69984e-05
1584.85	4.67461e-05
1593.41	3.52917e-05
1601.97	1.62339e-05
1610.52	4.53526e-06
1619.08	1.80127e-06
1627.64	-2.09347e-06
1636.2	4.04771e-07
1644.75	-6.5186e-07
1653.31	-3.82274e-05
1661.87	-1.34674e-06
1670.43	-2.39522e-06
1678.99	-1.01106e-07
1687.54	-1.60302e-07
1696.1	-1.21357e-05
1704.66	4.63043e-06
1713.22	4.0362e-05
1721.77	4.90616e-05
1730.33	-1.02101e-06
1738.89	-3.46768e-06
1747.45	-6.73164e-07
1756	-2.94335e-06
1764.56	8.10824e-08
1773.12	-1.54097e-06
1781.68	-7.3888e-07
1790.23	-8.98774e-07
1798.79	-7.4505e-09
1807.35	-3.29335e-07
1815.91	-1.42974e-06
1824.47	7.05643e-07
1833.02	-1.85011e-06
1841.58	-1.14092e-06
1850.14	-2.85034e-06
1858.7	-1.58963e-06
1867.25	-2.67904e-06
1875.81	-4.57647e-06
1884.37	-7.32535e-06
1892.93	-1.02699e-05
1901.48	-4.63828e-06
1910.04	-2.80232e-06
1918.6	-4.82361e-07
1927.16	-1.54225e-06
1935.71	-6.57157e-07
1944.27	7.69904e-07
1952.83	3.33235e-07
1961.39	-2.14283e-06
1969.95	-5.06284e-07
1978.5	1.52561e-07
1987.06	-1.04482e-07
1995.62	-9.53955e-07
2004.18	-2.31082e-07
2012.73	-9.869e-07
2021.29	-3.00971e-06
2029.85	-1.91973e-06
2038.41	1.44004e-07
2046.96	5.89229e-07
2055.52	-1.89138e-06
2064.08	-1.8926e-06
2072.64	-7.96388e-07
2081.19	-1.57537e-06
2089.75	-1.6103e-06
2098.31	-1.77491e-06
2106.87	-2.95983e-07
2115.43	3.59603e-07
2123.98	8.68041e-07
2132.54	-1.5681e-07
2141.1	-9.50287e-07
2149.66	2.65773e-07
2158.21	2.58771e-06
2166.77	1.78695e-07
2175.33	-1.07922e-06
2183.89	-3.64376e-07
2192.44	7.39404e-07
2201	-8.97552e-08
2209.56	4.61174e-07
2218.12	1.22235e-06
2226.67	-7.44642e-07
2235.23	-1.87421e-06
2243.79	-2.38707e-07
2252.35	-3.43014e-07
2260.9	6.83117e-07
2269.46	-1.65279e-06
2278.02	1.49767e-07
2286.58	1.43195e-06
2295.14	-1.1415e-06
2303.69	-2.12712e-06
2312.25	-1.36868e-06
2320.81	-2.93416e-06
2329.37	7.28228e-07
2337.92	-5.71878e-06
2346.48	-1.77409e-06
2355.04	-1.5745e-06
2363.6	-5.16971e-06
2372.15	-2.75226e-06
2380.71	-3.75825e-06
2389.27	-9.98134e-07
2397.83	-7.31546e-07
2406.38	-7.78344e-07
2414.94	4.62047e-07
2423.5	-2.63876e-06
2432.06	-1.01967e-06
2440.62	-3.60162e-06
2449.17	-1.29604e-06
2457.73	-1.84929e-06
2466.29	-6.7264e-07
2474.85	-2.72938e-06
2483.4	1.00046e-06
2491.96	6.06517e-07
2500.52	-2.01571e-07
2509.08	5.93129e-08
2517.63	-1.76571e-06
2526.19	2.51338e-07
2534.75	-1.57776e-06
2543.31	-4.48776e-07
2551.86	-5.84107e-07
2560.42	-2.38183e-07
2568.98	-7.27646e-07
2577.54	-1.5543e-06
2586.1	-1.45483e-06
2594.65	-3.33177e-06
2603.21	-2.26059e-06
2611.77	-2.14953e-06
2620.33	-2.04539e-06
2628.88	2.21536e-07
2637.44	-2.12799e-06
2646	-9.86783e-07
2654.56	-1.24388e-06
2663.11	-1.15087e-06
2671.67	9.18506e-08
2680.23	-3.88607e-06
2688.79	-2.09307e-06
2697.34	-2.70727e-06
2705.9	-1.7355e-06
2714.46	-1.53789e-06
2723.02	6.48601e-07
2731.58	-2.85831e-06
2740.13	-3.79754e-06
2748.69	-1.45238e-06
2757.25	6.20428e-07
2765.81	-2.14941e-06
2774.36	-3.51046e-07
2782.92	-1.64732e-06
2791.48	-7.97785e-07
2800.04	-2.79335e-06
2808.59	-2.86926e-06
2817.15	-8.36085e-07
2825.71	-2.92845e-06
2834.27	-3.89754e-07
2842.82	8.72756e-07
2851.38	-2.88404e-06
2859.94	-2.80028e-06
2868.5	-3.22996e-06
2877.06	-1.89871e-07
2885.61	-2.57089e-06
2894.17	-4.04655e-06
2902.73	-1.05733e-06
2911.29	-6.45807e-07
2919.84	4.84282e-08
2928.4	-2.95109e-08
2936.96	-9.92313e-07
2945.52	-2.51862e-07
2954.07	5.91383e-07
2962.63	9.18506e-07
2971.19	-1.54295e-06
2979.75	-1.32596e-06
2988.3	-1.31885e-06
2996.86	-2.86192e-06
3005.42	1.22764e-06
3013.98	1.21152e-06
3022.54	-2.94621e-06
3031.09	-2.86722e-06
3039.65	-1.09324e-06
3048.21	8.36435e-07
3056.77	3.16064e-07
3065.32	1.06635e-06
3073.88	-5.41325e-07
3082.44	-1.05681e-06
3091	-2.44667e-06
3099.55	-2.31157e-06
3108.11	1.35384e-06
3116.67	-1.02695e-06
3125.23	-3.69283e-06
3133.78	-2.43102e-06
3142.34	-1.39004e-06
3150.9	-2.08882e-06
3159.46	-6.01278e-08
3168.02	-2.99021e-06
3176.57	-3.13386e-07
3185.13	1.24441e-06
3193.69	2.73456e-07
3202.25	-1.1458e-06
3210.8	-2.12223e-07
3219.36	7.11872e-07
3227.92	8.73163e-07
3236.48	1.52537e-06
3245.03	-2.2575e-06
3253.59	-1.97752e-06
3262.15	-2.28701e-06
3270.71	1.34866e-07
3279.26	-7.34572e-07
3287.82	-1.19528e-06
3296.38	5.97786e-08
3304.94	-1.09062e-06
3313.5	1.68061e-06
3322.05	1.19231e-06
3330.61	-1.82118e-06
3339.17	1.2589e-06
3347.73	3.91803e-06
3356.28	-6.05295e-07
3364.84	-5.35272e-07
3373.4	2.35913e-06
3381.96	-6.91907e-07
3390.51	-2.42362e-06
3399.07	-2.75144e-06
3407.63	-2.96245e-06
3416.19	-3.1788e-06
3424.74	2.11419e-06
3433.3	3.53805e-06
3441.86	8.25026e-07
3450.42	3.17892e-06
3458.98	3.95976e-06
3467.53	-8.88006e-07
3476.09	-2.13783e-06
3484.65	-4.54958e-06
3493.21	-1.03707e-06
3501.76	-1.00815e-07
3510.32	-3.53998e-06
3518.88	-2.20261e-06
3527.44	-3.52828e-06
3535.99	8.95398e-07
3544.55	-1.14598e-06
3553.11	-1.55599e-06
3561.67	1.22415e-06
3570.22	-3.8444e-06
3578.78	-1.23981e-08
3587.34	2.71309e-06
3595.9	-4.85272e-07
3604.46	-1.52706e-06
3613.01	1.24679e-07
3621.57	1.19324e-07
3630.13	-8.38821e-07
3638.69	-2.02793e-07
3647.24	-2.0025e-06
3655.8	-3.17868e-07
3664.36	-1.2121e-06
3672.92	-3.6533e-06
3681.47	-9.84688e-07
3690.03	-1.06175e-06
3698.59	-2.33561e-06
3707.15	-4.02461e-06
3715.7	4.40511e-07
3724.26	-3.84294e-06
3732.82	-6.43362e-07
3741.38	7.32943e-07
3749.94	-3.46588e-06
3758.49	2.86367e-06
3767.05	6.55294e-07
3775.61	4.62629e-07
3784.17	1.93707e-06
3792.72	-3.55063e-09
3801.28	-1.56661e-05
3809.84	-1.62578e-06
3818.4	3.22915e-06
3826.95	3.67868e-07
3835.51	-5.17577e-07
3844.07	-1.75238e-06
3852.63	-1.23178e-06
3861.18	-5.05237e-08
3869.74	-4.4476e-06
3878.3	-3.84923e-07
3886.86	-2.77438e-06
3895.42	-2.79266e-06
3903.97	-4.45988e-06
3912.53	-1.06833e-06
3921.09	7.6484e-08
3929.65	-7.642e-07
3938.2	-2.49941e-06
3946.76	-1.72246e-06
3955.32	-1.82747e-06
3963.88	5.82768e-07
3972.43	2.24219e-06
