Mass Spectrum: ribitol
CAS: 0 - 00 - 0
Molecular weight: 512
m/z	intensity
73	208
103	80
117	32
129	956
130	112
131	44
147	80
171	28
189	192
190	40
191	72
203	320
204	128
205	360
206	68
207	28
217	352
218	112
219	52
243	1000
244	224
245	96
261	36
279	216
280	56
281	28
307	148
308	40
317	320
318	96
319	236
320	68
321	28
333	516
334	164
335	88
407	440
408	176
409	108
410	32
421	40
422	92
423	100
424	36
497	236
498	112
499	64
513	192
514	92
515	52
73	76
129	8
147	32
190	8
191	1000
192	180
193	84
194	8
204	36
205	8
217	76
218	16
265	368
266	92
267	48
268	8
291	16
293	56
294	16
295	8
305	64
306	20
307	12
318	208
319	92
320	40
321	8
343	12
367	52
368	20
369	8
393	68
394	24
395	12
433	208
434	84
435	44
436	12
507	412
508	212
509	124
510	40
511	12
597	16
598	12
611	8
612	12
613	36
614	20
615	12
73	120
129	16
147	52
191	756
192	132
193	60
204	32
217	120
218	24
265	1000
266	252
267	132
268	20
291	32
293	28
305	56
306	20
318	268
319	128
320	52
321	16
343	40
344	12
345	12
367	132
368	48
369	28
393	72
394	28
395	12
417	48
418	20
419	12
432	28
433	436
434	184
435	96
436	28
507	676
508	328
509	196
510	60
511	20
597	76
598	40
599	24
613	88
614	52
615	28
616	12
73	108
129	12
147	48
190	12
191	568
192	100
193	44
204	28
217	160
218	28
219	16
265	1000
266	252
267	128
268	20
291	36
293	24
305	100
306	32
307	20
318	252
319	120
320	48
321	12
343	32
344	12
345	8
367	128
368	44
369	24
393	72
394	24
395	12
433	356
434	140
435	80
436	20
507	596
508	276
509	164
510	48
511	16
597	72
598	44
599	24
611	8
612	16
613	80
614	44
615	24
73	96
129	8
147	40
191	388
192	68
193	32
204	84
205	16
217	124
218	24
219	12
230	28
231	64
232	16
255	48
256	12
265	1000
266	244
267	128
268	20
291	8
305	72
306	20
307	12
318	68
319	28
320	12
329	12
344	48
345	524
346	172
347	80
348	20
419	560
420	216
421	120
422	32
423	8
433	24
434	16
435	28
436	12
509	72
510	36
511	20
523	12
524	8
525	92
526	44
527	28
73	176
129	20
147	68
191	796
192	144
193	64
203	20
204	184
205	40
217	244
218	52
219	20
230	72
231	156
232	36
255	160
256	36
257	24
265	972
266	256
267	128
268	20
305	196
306	60
307	28
318	48
319	20
329	28
331	20
344	172
345	856
346	292
347	132
348	28
419	1000
420	408
421	212
422	56
433	36
434	28
435	104
436	36
437	20
509	176
510	76
511	48
524	28
525	92
526	48
527	24
73	104
129	12
147	48
191	324
192	60
193	28
203	16
204	56
205	12
217	152
218	32
219	12
230	24
231	68
232	12
255	56
256	12
257	8
265	1000
266	252
267	128
268	20
305	148
306	40
307	24
318	92
319	36
320	16
329	12
331	8
344	32
345	400
346	136
347	64
348	12
419	552
420	224
421	124
422	32
433	20
434	8
435	20
509	44
510	20
511	12
524	8
525	180
526	88
527	48
528	16
73	164
75	92
91	40
103	52
117	24
129	60
147	56
157	32
183	36
189	24
191	48
199	28
204	68
205	36
217	188
218	52
219	24
231	40
243	32
245	28
257	28
259	28
271	36
272	24
273	128
274	24
289	72
317	48
318	24
319	36
345	20
347	56
361	484
362	160
363	152
364	48
365	44
407	36
435	56
436	28
437	192
438	76
439	40
451	1000
452	412
453	272
454	76
455	32
525	72
526	32
69	2
73	12
74	2
75	12
80	4
82	4
83	2
84	416
85	24
91	2
98	4
103	4
110	2
112	20
113	2
117	2
128	2
133	2
140	20
141	2
145	2
147	40
148	4
149	2
156	8
157	2
158	2
159	2
174	16
175	2
184	32
185	4
186	376
187	48
188	16
200	180
201	36
202	1000
203	140
204	44
205	4
230	92
231	16
232	4
242	52
243	8
244	2
274	2
403	4
404	2
69	4
71	2
73	72
74	8
75	16
80	12
83	2
84	20
91	2
112	24
128	8
133	2
140	2
141	2
147	20
148	2
156	1000
157	144
158	40
159	4
175	24
176	2
177	2
184	364
185	56
186	28
187	2
191	52
192	8
193	4
200	4
202	24
219	12
230	460
231	104
232	44
233	4
244	2
246	16
247	2
258	712
259	164
260	64
261	12
272	204
273	60
274	492
275	116
276	44
277	4
73	300
75	144
79	104
91	220
103	52
105	56
106	48
107	628
108	52
116	36
117	92
118	384
119	52
129	60
147	80
157	40
179	48
191	64
199	56
204	344
205	100
206	36
217	180
218	52
243	64
245	40
271	52
273	120
289	172
290	44
317	112
319	48
361	1000
362	336
363	352
364	100
365	44
379	84
435	60
451	100
452	44
453	40
462	96
463	40
478	96
479	40
494	56
506	36
568	44
612	64
73	132
103	32
129	52
147	64
191	200
192	36
204	596
205	120
206	52
217	300
218	68
243	48
265	164
266	36
271	36
305	40
319	44
343	72
345	48
361	1000
362	328
363	164
364	40
407	96
408	32
419	44
433	208
434	88
435	80
451	388
452	164
453	88
507	172
508	80
509	60
523	48
539	172
540	84
541	60
597	108
598	60
599	36
613	104
614	56
615	32
641	144
642	84
643	60
715	56
716	44
73	132
129	32
147	36
169	28
191	32
205	32
217	68
219	100
231	80
232	24
243	48
247	52
254	484
255	128
256	48
265	20
271	52
273	36
283	52
309	24
317	20
319	68
320	20
321	288
322	84
323	36
345	24
357	24
361	1000
362	328
363	224
364	56
395	60
435	128
436	48
437	236
438	84
439	40
450	124
451	96
452	44
453	92
454	32
527	336
528	156
529	80
530	28
617	96
618	52
619	32
73	228
133	612
134	64
147	88
159	80
191	716
192	124
193	60
207	792
208	140
209	68
217	152
233	64
260	260
261	124
265	760
266	192
267	96
305	48
309	48
318	140
319	68
335	96
343	568
344	192
345	132
359	76
367	196
368	68
374	104
375	716
376	236
377	112
432	64
433	672
434	288
435	160
449	1000
450	412
451	212
452	64
465	72
507	220
508	104
509	60
539	184
540	92
541	56
555	136
556	64
73	100
129	16
147	48
191	664
192	116
193	56
204	28
217	108
218	24
219	8
265	1000
266	252
267	128
268	24
291	28
293	24
305	68
306	24
307	12
318	168
319	88
320	36
321	8
343	32
344	8
367	116
368	40
369	24
393	68
394	24
395	12
432	40
433	476
434	192
435	104
436	24
507	488
508	232
509	144
510	44
511	12
523	16
597	88
598	48
599	32
600	12
612	8
613	40
614	24
615	12
73	108
129	16
147	52
190	8
191	752
192	136
193	60
204	32
217	168
218	32
219	12
265	1000
266	248
267	128
268	24
291	28
293	32
305	100
306	36
307	16
318	104
319	80
320	28
343	20
367	124
368	44
369	24
393	76
394	28
395	12
432	60
433	484
434	196
435	108
436	28
507	524
508	244
509	144
510	44
511	12
523	8
597	68
598	40
599	24
611	12
612	32
613	104
614	68
615	36
616	12
73	136
103	44
117	32
129	36
147	68
191	84
204	336
205	184
206	48
217	192
218	48
231	44
243	36
273	40
319	84
331	48
345	416
346	136
347	88
361	1000
362	316
363	176
364	40
407	64
419	212
420	80
421	88
422	32
435	168
436	68
437	52
451	400
452	184
453	100
509	52
511	40
525	368
526	168
527	116
528	40
539	128
540	68
541	44
599	100
600	56
601	32
615	124
616	68
617	48
685	52
73	184
74	12
75	12
179	16
267	100
268	24
269	12
280	8
281	8
283	732
284	184
285	72
286	12
311	40
312	8
353	32
354	12
355	100
356	32
357	16
368	276
369	112
370	48
371	12
383	28
397	68
398	16
399	8
561	56
562	28
563	16
589	8
635	1000
636	568
637	328
638	116
639	40
640	8
649	16
650	400
651	480
652	284
653	136
654	48
655	12
679	100
680	60
681	32
682	16
691	16
67	2
69	2
71	2
72	2
73	36
74	2
75	4
80	4
83	2
86	4
87	2
100	12
101	2
103	2
114	4
116	28
117	4
118	2
128	2
130	4
131	4
133	4
134	2
144	4
146	2
147	12
148	2
149	2
158	2
174	316
175	60
176	28
177	4
188	76
189	16
190	8
191	2
205	2
262	1000
263	260
264	124
265	24
266	4
276	40
277	20
278	108
279	28
280	12
281	2
306	2
69	28
71	32
73	144
75	20
80	92
85	16
103	616
104	64
105	44
108	16
111	16
117	36
125	20
128	68
129	784
130	104
131	68
133	24
147	100
148	16
175	20
177	296
178	48
179	24
203	176
204	72
205	272
206	72
207	32
218	212
219	472
220	116
221	56
263	32
292	8
293	1000
294	300
295	160
296	8
307	100
308	40
309	348
310	132
311	44
317	56
318	16
319	16
350	8
366	8
393	8
71	2
73	36
74	2
75	2
80	2
86	4
100	4
116	2
126	2
128	2
130	4
131	2
140	2
142	4
144	2
146	4
158	2
160	2
172	8
173	2
174	272
175	52
176	20
177	2
186	2
187	8
188	4
189	2
200	8
201	2
214	16
215	4
216	2
273	2
289	2
361	1000
362	376
363	196
364	48
365	12
366	2
375	40
376	200
377	144
378	64
379	20
380	4
405	12
406	4
407	2
72	4
73	40
82	4
84	12
86	8
100	4
111	8
116	8
128	8
129	4
142	76
143	8
144	8
146	12
160	28
161	8
172	12
174	92
175	16
176	8
186	4
188	16
200	72
201	140
202	32
203	12
216	4
257	8
272	92
273	52
274	12
344	4
346	16
402	4
418	1000
419	412
420	216
421	56
422	16
432	36
433	144
434	172
435	76
436	36
437	8
462	28
463	12
464	4
490	12
491	4
69	8
71	8
73	60
75	12
80	8
86	12
100	8
116	36
128	12
142	16
144	220
145	28
146	16
156	24
157	44
160	92
161	16
162	8
170	28
172	16
174	160
175	32
176	12
183	8
200	8
201	52
202	8
303	116
304	32
305	16
317	24
318	8
344	220
345	80
346	36
347	8
418	48
419	20
420	8
490	1000
491	512
492	284
493	88
494	28
504	44
505	48
506	108
507	52
508	24
534	12
69	20
71	16
73	88
74	8
75	28
77	4
79	2
80	68
83	8
91	4
95	4
97	4
108	20
111	2
113	2
119	4
122	2
128	48
129	2
133	2
137	2
147	4
183	2
187	4
205	4
207	4
219	2
225	2
283	4
293	2
299	1000
300	248
301	136
302	16
303	4
314	92
315	904
316	224
317	132
318	12
329	4
341	4
342	4
343	204
344	64
345	28
355	64
356	16
357	4
936	2
73	404
75	100
77	48
91	56
103	88
147	88
217	88
299	300
300	88
301	52
315	412
316	124
317	68
343	112
344	40
355	40
357	168
358	48
387	76
389	52
403	68
434	140
435	56
449	44
450	88
451	40
459	368
460	152
461	112
471	100
480	40
487	84
660	56
674	52
675	44
676	128
677	56
678	40
690	60
691	56
692	40
706	1000
707	588
708	388
709	152
710	60
722	328
723	204
724	124
725	44
73	248
75	96
89	32
91	40
147	48
160	40
186	56
217	44
228	160
247	32
259	52
299	376
300	108
301	60
315	432
316	124
317	76
331	204
332	68
333	32
343	164
344	44
349	40
355	52
357	76
387	152
388	64
389	68
390	40
392	100
393	32
459	72
460	32
471	196
472	92
473	48
475	32
561	64
573	72
574	36
663	52
706	1000
707	548
708	384
709	136
710	52
722	400
723	212
724	144
725	56
69	144
71	148
73	832
74	60
75	504
77	44
80	164
83	96
85	176
91	208
100	40
103	60
119	40
128	48
129	40
147	132
196	96
217	48
219	44
228	304
247	40
259	176
270	44
275	116
299	944
300	212
301	76
314	64
315	1000
316	296
317	168
343	316
355	72
357	48
376	224
379	48
387	184
392	48
407	72
408	68
471	160
472	48
706	460
707	260
708	192
709	120
722	236
723	120
724	72
725	44
73	384
103	196
129	152
147	140
157	128
160	184
174	456
189	728
190	136
205	1000
206	188
214	108
217	348
219	120
231	172
233	148
234	244
246	192
247	116
248	156
256	380
257	96
261	292
279	440
280	116
288	532
289	136
303	128
307	912
308	256
309	164
319	244
320	184
330	224
335	496
336	148
346	128
362	196
378	752
379	248
380	104
393	176
436	280
437	116
452	640
453	264
454	164
467	188
468	232
469	136
73	164
103	96
133	32
142	40
147	52
160	68
174	172
175	28
189	292
190	56
191	52
205	464
206	84
207	40
216	32
217	128
218	28
233	44
234	220
235	52
246	64
247	24
248	80
279	192
280	48
281	28
288	408
289	88
290	40
307	400
308	124
309	56
319	456
320	188
321	88
362	180
363	60
364	32
378	280
379	92
380	44
436	28
452	1000
453	404
454	212
455	64
466	24
467	80
468	116
469	52
73	144
103	88
129	36
142	32
147	48
160	104
174	148
189	232
190	44
191	36
205	400
206	84
207	36
217	112
218	32
231	40
233	40
234	80
246	68
248	76
256	44
261	44
279	132
280	36
288	228
289	56
290	28
291	32
307	364
308	100
309	60
319	324
320	152
321	60
335	56
362	148
363	48
378	196
379	64
380	28
393	36
420	36
436	44
452	1000
453	424
454	220
455	64
467	76
468	148
469	64
73	200
103	112
129	36
142	52
147	64
160	168
174	264
175	40
189	468
190	84
191	60
205	540
206	100
207	60
216	52
217	148
218	40
233	60
234	56
246	88
248	120
256	68
261	44
262	40
279	352
280	92
281	48
288	348
289	84
307	484
308	144
309	76
319	576
320	268
321	112
335	48
362	312
363	92
364	52
378	180
379	52
436	76
452	1000
453	424
454	220
455	64
467	128
468	280
469	124
470	56
73	252
103	264
133	124
147	100
172	104
189	124
205	264
207	72
214	64
217	212
231	76
256	288
257	64
261	176
262	160
263	84
276	228
277	72
279	104
288	152
291	104
307	500
308	152
309	80
319	256
320	84
330	188
335	252
336	108
350	196
351	72
364	68
376	96
390	168
392	88
393	152
394	64
420	100
464	160
480	80
524	96
538	80
554	1000
555	504
556	296
557	84
569	172
570	340
571	160
572	88
73	276
147	116
160	392
161	56
191	200
204	52
205	396
206	92
207	52
217	672
218	144
219	76
234	76
246	136
259	116
260	84
262	72
291	116
300	304
301	84
307	740
308	208
309	108
319	868
320	352
321	148
331	124
333	108
336	56
374	112
381	528
382	192
383	124
390	416
391	156
392	72
421	300
422	152
423	80
464	428
465	192
466	108
480	260
481	88
554	1000
555	500
556	308
557	100
570	140
571	76
73	92
103	72
147	48
189	28
205	128
206	28
217	60
218	16
231	28
244	20
262	40
263	16
276	56
277	24
279	24
288	16
307	232
308	60
309	40
318	24
319	248
320	88
321	32
335	36
336	20
350	104
351	32
352	16
364	32
390	96
391	32
392	24
432	20
464	164
465	76
466	40
480	88
481	40
482	20
524	16
554	1000
555	512
556	304
557	100
558	28
568	16
569	72
570	132
571	68
572	32
73	244
147	100
160	320
161	48
189	48
191	168
205	292
206	60
217	548
218	104
219	60
234	72
246	104
259	176
260	52
262	52
291	76
300	284
301	80
302	68
307	644
308	192
309	100
319	792
320	296
321	128
331	100
333	100
374	92
381	316
382	128
383	72
390	388
391	128
392	88
421	304
422	120
423	108
464	592
465	232
466	144
480	212
481	84
554	1000
555	492
556	296
557	100
570	184
571	92
572	60
69	72
73	392
75	164
80	80
129	104
133	128
147	140
160	504
191	180
205	424
206	104
207	96
217	356
218	148
234	108
235	184
242	72
246	72
259	132
268	328
273	96
300	584
301	152
307	456
308	128
309	116
319	1000
320	408
321	172
358	216
359	72
360	72
363	132
374	368
375	128
381	252
390	460
391	144
437	88
464	440
465	200
466	76
480	344
481	164
538	136
554	604
555	316
556	180
557	112
570	72
73	328
103	88
133	156
147	120
160	284
191	168
205	412
206	80
207	104
217	608
218	148
219	108
233	96
235	168
246	112
259	144
268	168
273	200
291	96
300	600
301	144
307	580
308	140
309	140
319	1000
320	364
321	160
347	116
358	100
363	140
374	256
375	88
376	72
381	464
382	168
383	100
390	248
391	100
437	112
448	152
464	396
465	200
466	96
480	148
538	96
554	204
555	108
570	336
571	172
572	124
73	352
75	108
133	140
147	136
160	288
186	120
189	116
191	152
205	428
207	104
217	504
218	148
219	104
233	96
235	172
246	108
259	136
268	232
269	88
273	168
279	88
291	108
300	588
301	132
307	424
308	120
309	152
319	1000
320	336
321	176
331	108
342	88
347	156
358	116
363	104
374	252
375	112
381	372
382	148
390	292
437	124
464	340
465	184
480	220
538	120
554	304
555	136
556	88
570	176
571	104
73	312
133	60
147	112
160	396
186	60
189	80
191	208
205	416
206	92
217	812
218	172
219	84
234	64
246	176
259	144
262	104
291	128
300	388
301	104
302	76
307	764
308	224
309	120
319	1000
320	356
321	164
331	112
333	124
374	124
381	612
382	216
383	136
390	484
391	156
392	80
421	348
422	144
423	96
464	852
465	360
466	228
480	260
481	124
482	56
554	984
555	496
556	300
557	92
570	136
571	64
69	36
71	36
73	168
75	72
89	40
91	48
103	40
147	76
191	64
204	156
205	100
217	116
218	32
243	36
259	40
271	56
319	76
320	32
361	1000
362	364
363	176
364	44
377	80
390	44
407	44
409	36
421	68
435	56
451	100
452	48
464	136
465	68
466	36
480	144
481	48
482	44
554	60
555	36
570	140
571	84
572	36
598	100
599	52
624	32
672	68
842	68
843	52
932	68
933	56
934	36
69	152
71	100
73	368
74	24
75	312
80	192
85	28
91	104
103	24
128	52
133	24
147	176
163	24
177	36
191	56
204	264
205	164
217	244
243	88
244	24
259	36
271	60
307	24
319	28
322	24
361	1000
362	372
363	324
364	92
435	24
437	84
451	124
452	52
464	84
511	28
522	24
554	256
555	172
570	168
573	64
598	156
599	24
752	32
842	60
69	8
71	12
73	80
75	16
103	20
129	20
147	28
169	16
189	12
191	28
204	16
205	12
217	132
218	36
219	16
231	16
243	12
271	32
272	12
273	20
289	12
305	12
317	8
319	24
320	24
331	8
345	12
361	1000
362	336
363	168
364	44
365	16
381	16
435	96
436	40
437	160
438	60
439	24
450	16
451	988
452	428
453	240
454	72
455	20
525	68
526	40
527	24
723	24
724	12
904	8
73	168
103	60
117	20
129	604
130	68
131	28
147	68
171	28
189	104
191	76
203	248
204	100
205	264
206	56
207	24
217	388
218	100
219	72
243	1000
244	220
245	100
279	92
280	24
291	20
307	208
308	56
309	32
317	420
318	120
319	172
320	52
333	392
334	120
335	64
407	384
408	148
409	80
410	24
421	28
422	40
423	248
424	96
425	52
497	408
498	184
499	112
500	32
513	112
514	52
515	32
73	172
103	56
117	24
129	700
130	80
131	36
147	76
171	24
189	104
191	80
203	348
204	128
205	392
206	72
207	36
217	352
218	104
219	60
243	1000
244	216
245	108
279	84
280	24
307	212
308	64
309	32
317	336
318	104
319	192
320	52
321	24
333	432
334	136
335	80
407	424
408	168
409	96
410	28
421	36
422	56
423	208
424	80
425	40
497	412
498	196
499	120
500	36
513	132
514	72
515	40
73	136
103	36
147	68
183	32
189	36
191	52
204	32
205	320
206	56
207	28
217	164
218	36
231	132
232	28
255	96
273	64
279	36
305	132
306	40
307	216
308	64
309	28
319	432
320	132
321	68
331	24
345	1000
346	336
347	184
348	40
381	48
419	508
420	200
421	140
422	44
435	40
437	28
509	64
510	32
511	24
525	172
526	88
527	52
599	748
600	412
601	264
602	100
603	32
615	60
616	36
73	120
103	36
147	52
183	64
189	40
191	84
204	32
205	240
206	48
207	28
217	132
218	28
231	240
232	52
255	128
256	32
257	28
265	28
273	60
279	56
305	104
306	36
307	216
308	64
309	28
319	324
320	104
321	52
345	1000
346	324
347	192
348	48
381	44
419	596
420	236
421	160
422	48
435	60
437	32
509	92
510	44
511	28
525	60
526	32
599	172
600	96
601	64
615	100
616	56
617	40
73	132
103	40
147	64
183	48
189	32
191	120
204	36
205	212
206	44
217	272
218	56
219	32
231	320
232	68
255	148
256	36
257	32
273	56
279	36
305	112
306	44
307	308
308	92
309	40
319	188
320	60
321	28
331	32
345	1000
346	316
347	204
348	48
381	48
419	740
420	304
421	212
422	60
435	48
437	40
509	80
510	40
524	40
525	76
526	36
599	176
600	104
601	68
615	132
616	68
617	48
73	88
103	36
117	24
147	44
191	48
204	144
205	112
206	24
217	120
218	36
231	36
271	32
273	28
307	28
319	56
331	24
345	208
346	72
347	60
361	1000
362	304
363	176
364	44
407	32
419	188
420	80
421	72
435	140
436	56
437	44
451	96
452	36
453	24
509	24
525	272
526	132
527	100
528	36
539	36
599	64
600	36
601	24
615	128
616	68
617	48
643	32
644	24
887	32
977	44
978	28
69	4
71	8
73	96
74	8
75	32
77	4
80	20
83	4
91	8
93	4
113	4
115	52
116	4
117	16
119	12
128	20
133	8
137	4
143	16
147	216
148	36
149	24
159	248
160	32
161	12
163	8
187	4
189	8
191	4
204	8
205	4
217	4
228	16
231	8
233	404
234	80
235	36
236	4
248	16
249	1000
250	196
251	88
252	8
253	8
277	192
278	44
279	16
289	80
290	16
291	8
69	4
71	4
73	312
74	28
75	16
76	4
77	12
79	2
80	12
83	2
85	2
91	12
93	4
105	344
106	24
107	2
108	2
109	2
117	16
119	4
128	8
133	8
135	28
136	4
151	4
166	4
179	1000
180	144
181	48
182	20
183	2
194	40
195	596
196	100
197	32
198	2
207	4
210	4
219	2
223	88
224	16
225	4
231	2
235	36
236	8
237	2
267	8
268	2
373	8
374	2
69	2
71	2
73	56
74	4
75	8
77	2
78	8
79	2
80	4
85	2
91	2
93	2
94	4
95	2
106	104
107	8
108	2
117	2
120	2
128	2
129	2
136	16
137	4
152	4
153	2
180	492
181	68
182	20
183	2
192	2
194	2
195	20
196	1000
197	152
198	48
199	4
210	8
211	2
222	4
224	196
225	32
226	8
227	2
236	64
237	12
238	4
268	2
301	2
375	4
376	2
69	4
72	4
73	192
74	16
75	40
83	4
91	4
99	12
113	12
115	8
117	4
126	4
127	16
133	8
143	20
147	204
148	32
149	16
163	32
164	4
170	20
171	1000
172	128
173	52
174	4
215	4
217	4
242	4
244	8
245	892
246	180
247	84
248	12
260	8
261	592
262	128
263	56
264	8
289	160
290	40
291	16
301	64
302	16
303	8
333	72
334	20
335	12
407	8
505	8
506	4
69	4
71	2
73	56
74	4
75	24
77	2
80	4
85	2
91	4
93	2
101	2
115	4
128	4
129	16
133	2
147	92
148	12
149	8
163	16
164	2
171	2
172	8
173	1000
174	132
175	44
176	4
201	2
218	8
245	2
247	628
248	124
249	56
250	8
251	2
261	4
262	16
263	208
264	44
265	20
266	2
291	156
292	36
293	16
294	2
303	64
304	16
305	8
335	24
336	4
337	4
69	2
73	60
74	4
75	20
80	4
83	8
113	4
115	4
117	2
127	4
128	4
133	4
143	36
144	4
147	24
148	4
149	4
171	224
172	28
173	16
198	2
199	4
215	2
217	8
233	4
244	4
245	916
246	188
247	84
248	12
259	4
260	4
261	1000
262	216
263	96
264	12
265	4
289	204
290	48
291	20
292	2
301	52
302	12
303	4
333	20
334	4
335	2
505	16
506	8
507	4
73	136
75	36
89	20
113	28
117	348
118	32
143	20
145	24
147	92
175	1000
176	120
177	52
187	64
189	80
191	44
203	88
205	28
207	36
217	32
218	32
219	168
220	36
221	16
233	268
234	48
235	276
236	64
237	20
249	284
250	60
251	28
261	16
277	860
278	188
279	80
291	344
292	76
293	460
294	104
295	44
307	64
308	16
321	160
322	44
323	16
333	92
334	20
335	84
336	24
347	44
71	4
72	4
73	76
74	8
75	52
77	4
85	4
91	8
97	4
99	4
113	4
115	4
116	8
117	8
129	12
133	4
143	12
145	4
147	44
148	8
149	4
158	20
159	16
163	8
173	4
186	24
187	1000
188	136
189	48
197	4
204	12
229	4
233	8
249	8
261	504
262	104
263	44
264	4
276	8
277	124
278	28
279	12
305	132
306	32
307	12
317	56
318	12
319	4
349	24
350	8
73	164
74	16
75	32
80	8
133	12
147	60
163	16
171	20
175	12
187	8
189	28
190	24
191	16
217	8
233	772
234	164
235	72
236	8
245	148
246	28
247	24
261	156
262	36
263	48
264	8
265	20
289	44
290	8
291	16
306	12
307	204
308	56
309	28
319	16
335	1000
336	288
337	140
338	24
350	8
351	448
352	148
353	72
354	12
379	220
380	68
381	32
391	88
392	28
393	16
423	20
69	4
73	40
74	4
75	24
77	4
80	4
83	4
111	80
112	4
117	8
128	4
129	8
141	16
147	8
157	8
159	12
172	16
173	8
175	4
185	20
186	4
187	4
199	4
201	1000
202	156
203	52
204	8
217	8
231	4
247	4
253	4
254	4
275	456
276	104
277	40
278	12
289	12
290	16
291	132
292	32
293	16
319	132
320	32
321	16
331	48
332	12
333	4
335	4
351	4
363	12
73	176
74	16
75	28
77	8
80	4
91	8
102	8
103	24
117	8
131	380
132	36
135	12
145	8
147	4
161	36
162	4
177	24
199	4
205	932
206	152
207	44
219	8
220	120
221	1000
222	180
223	52
224	4
234	12
235	8
247	16
249	168
250	32
251	8
261	40
262	8
263	40
264	4
293	12
321	16
322	4
337	4
365	136
366	40
367	20
381	40
382	12
383	4
409	16
410	4
425	8
73	1000
74	76
75	108
82	24
89	28
91	28
93	20
97	20
105	32
117	28
129	24
147	108
148	24
156	60
163	24
172	80
173	24
186	40
198	84
200	36
201	48
202	48
229	52
230	264
231	36
233	32
244	572
245	128
246	64
275	28
288	68
289	40
290	40
304	912
305	208
306	80
307	32
318	20
319	96
320	572
321	124
322	48
335	36
348	252
349	64
350	32
351	24
360	92
361	28
365	44
73	96
74	8
75	12
147	32
189	20
219	28
221	8
263	4
277	36
278	8
279	4
292	84
293	28
294	12
305	28
306	8
321	244
322	72
323	32
333	20
334	4
351	36
352	12
353	8
355	12
367	12
395	72
396	28
397	16
423	1000
424	376
425	212
426	52
427	16
438	20
439	244
440	92
441	52
442	12
467	128
468	56
469	32
470	8
479	40
480	16
481	8
511	8
577	16
578	8
579	8
73	136
74	12
75	36
91	12
147	104
148	16
149	12
163	8
191	28
193	28
204	344
205	64
206	28
239	28
255	20
259	12
265	136
266	32
267	72
268	16
282	12
283	156
284	40
285	20
287	8
357	76
358	24
359	16
372	60
373	772
374	264
375	128
376	28
401	16
447	1000
448	416
449	224
450	56
451	16
461	28
462	220
463	104
464	56
465	20
491	116
492	52
493	28
494	8
503	20
504	8
69	8
73	92
74	8
75	20
80	4
91	8
147	28
149	8
273	100
274	20
275	12
301	20
303	8
305	12
347	52
348	16
349	12
363	436
364	132
365	72
366	12
375	176
376	48
377	28
378	8
391	12
419	40
420	16
421	20
422	8
437	72
438	28
439	16
463	8
465	1000
466	416
467	232
468	64
469	16
481	320
482	144
483	80
484	20
509	100
510	44
511	24
521	48
522	20
523	12
553	8
73	108
75	20
147	40
191	16
204	24
205	16
255	40
259	192
260	44
261	20
283	384
284	104
285	40
333	60
334	48
345	276
346	88
347	44
357	124
358	44
359	20
372	36
373	188
374	60
375	32
419	232
420	92
421	52
435	140
436	56
437	32
447	104
448	44
449	28
461	32
462	32
463	32
509	36
510	24
537	1000
538	484
539	292
540	104
541	28
551	16
553	160
554	76
555	44
581	44
582	24
69	2
73	72
74	4
75	8
83	2
91	2
147	4
179	4
253	4
267	2
281	32
282	8
283	4
311	2
355	24
356	8
357	4
369	48
370	20
371	8
415	12
416	4
417	2
443	1000
444	400
445	220
446	60
447	16
448	2
455	4
456	4
457	4
458	344
459	712
460	328
461	152
462	40
463	12
485	4
487	136
488	60
489	32
490	8
491	2
499	28
500	12
501	8
531	8
532	8
533	4
69	4
71	4
73	56
75	20
80	4
89	4
91	8
97	4
128	4
147	4
190	4
191	8
205	4
207	8
219	12
220	4
221	4
233	4
235	4
249	172
250	36
251	16
279	8
293	8
295	20
296	4
308	32
309	8
310	4
323	736
324	188
325	80
326	16
327	4
335	4
338	396
339	1000
340	300
341	112
342	20
365	4
367	224
368	72
369	32
370	4
379	36
380	12
381	4
411	4
661	4
69	56
73	176
74	16
103	52
116	28
117	168
118	16
129	260
130	32
133	16
147	64
159	20
189	252
190	44
191	120
192	20
203	144
204	108
205	380
206	72
207	32
215	16
217	332
218	60
219	28
221	20
231	1000
232	212
233	96
279	88
280	24
293	40
305	668
306	200
307	200
308	48
309	16
319	96
320	56
321	576
322	184
323	88
324	16
395	800
396	296
397	160
398	40
411	156
412	60
413	32
69	36
73	108
75	20
80	40
83	36
97	48
123	16
129	20
147	24
177	20
203	16
217	40
221	20
236	84
273	20
283	364
284	108
311	20
355	336
356	108
357	64
361	60
362	44
363	68
435	36
441	176
442	108
443	76
456	324
457	236
458	128
459	40
649	148
650	76
723	1000
724	684
725	400
726	192
727	76
728	56
737	16
738	500
739	556
740	364
741	216
742	60
744	20
767	104
768	48
769	64
69	36
73	44
83	28
103	24
109	60
117	56
129	196
137	28
139	16
147	44
149	36
165	116
166	16
169	16
170	152
174	132
175	36
177	32
189	104
191	60
199	28
203	564
204	124
205	920
206	176
207	36
217	80
219	548
220	1000
221	408
222	36
231	584
232	120
233	32
255	68
271	104
279	40
305	308
306	84
307	68
308	20
319	40
321	104
395	244
396	104
397	60
411	164
412	64
413	56
414	16
69	28
71	40
73	60
75	16
91	12
97	24
129	12
131	16
147	52
149	16
170	28
174	28
177	32
186	24
203	16
205	52
207	12
217	88
218	16
219	16
220	84
245	184
246	28
247	12
255	16
259	12
271	24
292	120
293	68
304	12
307	140
308	56
309	28
319	96
333	56
335	60
336	20
379	44
381	40
409	1000
410	364
411	208
412	48
425	324
426	124
427	76
453	76
454	20
465	32
466	12
73	88
75	20
80	12
103	12
117	24
147	40
205	48
217	148
218	24
219	20
220	80
221	24
245	152
246	32
247	16
273	24
291	28
292	120
293	44
294	16
307	228
308	68
309	32
319	172
320	48
321	24
333	24
335	100
336	28
337	16
347	40
348	16
362	28
363	16
379	24
381	52
382	16
409	1000
410	380
411	200
412	52
413	16
425	248
426	92
427	52
453	92
454	36
455	24
465	40
466	12
69	24
71	20
73	156
75	72
80	36
89	16
91	40
103	28
128	20
147	52
157	16
189	16
204	16
205	32
217	56
218	12
292	148
293	44
294	24
305	24
307	56
319	48
320	16
331	24
333	20
347	124
348	40
349	36
393	76
394	24
395	20
421	180
422	60
423	44
435	16
436	20
437	172
438	72
439	48
511	1000
512	488
513	296
514	96
515	28
527	188
528	96
529	56
530	12
555	44
556	16
69	32
73	180
75	64
91	36
117	36
128	32
147	68
191	412
192	76
193	48
204	64
205	36
217	184
218	44
230	32
231	120
232	44
255	108
256	28
257	28
265	1000
266	260
267	132
305	96
318	196
319	84
320	40
344	72
345	764
346	248
347	136
361	140
362	88
363	56
419	588
420	268
421	144
422	36
433	32
435	252
436	140
437	76
450	112
451	44
509	204
510	108
511	64
525	160
526	76
527	44
71	40
73	232
74	28
75	136
80	64
85	28
91	64
97	36
117	28
128	32
143	28
147	76
189	28
191	308
192	52
204	80
205	44
217	136
230	32
231	104
232	32
255	120
257	48
265	648
266	188
267	120
305	132
307	48
318	40
319	28
329	32
345	656
346	228
347	124
348	28
361	28
419	1000
420	368
421	232
422	80
433	32
437	44
509	208
510	108
511	144
512	40
513	28
525	236
526	132
527	76
73	484
75	176
91	144
117	612
119	312
143	456
147	192
189	136
191	316
205	392
217	560
218	148
219	360
231	152
246	204
257	1000
258	244
259	172
265	224
272	168
293	128
305	140
307	560
308	176
318	240
319	576
320	336
321	180
331	416
332	144
334	412
335	176
345	148
346	168
347	448
348	196
362	436
363	144
381	200
419	140
421	364
422	164
436	576
437	532
438	172
452	228
511	620
512	300
513	152
527	184
73	96
75	16
147	44
191	800
192	144
193	68
204	92
205	24
217	132
218	28
219	12
230	48
231	80
232	20
255	56
265	488
266	120
267	64
305	180
306	52
307	28
318	92
319	32
320	12
329	20
331	12
344	56
345	400
346	128
347	64
419	1000
420	388
421	212
422	56
423	16
433	32
434	28
435	100
436	40
437	20
509	304
510	156
511	88
512	28
523	12
524	40
525	160
526	80
527	44
528	12
73	416
75	192
91	112
100	92
103	300
147	152
191	196
204	84
205	196
217	388
259	156
262	308
307	436
308	136
309	88
319	852
320	272
321	156
331	156
332	80
333	168
334	96
336	136
358	84
361	88
381	376
382	140
402	236
403	100
421	292
422	124
423	100
432	104
433	108
438	76
476	80
492	588
493	260
494	196
495	80
566	484
567	232
568	172
582	148
656	1000
657	564
658	352
659	120
672	232
673	132
73	500
75	264
89	96
91	172
100	132
103	396
128	108
147	112
189	160
191	288
204	180
205	264
217	508
218	104
259	180
262	312
263	104
307	380
308	116
319	964
320	288
321	168
331	196
332	136
333	188
359	128
361	356
362	128
381	460
382	176
402	212
421	592
422	244
423	156
433	304
434	124
476	96
492	532
493	188
494	96
566	1000
567	524
568	344
569	124
656	932
657	528
658	332
659	168
672	232
673	144
69	116
71	232
73	720
75	452
80	184
85	160
91	224
103	312
133	216
147	252
191	232
201	92
205	260
207	120
214	100
217	436
219	152
262	176
268	268
273	100
307	264
319	1000
320	360
321	172
331	96
347	148
358	420
359	144
381	528
382	216
383	128
402	488
403	132
421	180
432	504
433	188
437	220
438	148
462	100
476	96
478	168
492	104
493	100
494	184
626	112
656	648
657	336
658	152
672	344
673	152
69	20
71	20
73	196
75	184
91	132
103	40
128	20
136	20
138	20
147	48
149	20
169	20
170	20
179	40
192	276
193	1000
194	212
195	68
204	184
205	112
217	56
221	104
231	20
232	20
267	112
271	20
273	44
283	24
289	132
319	40
345	88
347	48
348	20
361	948
362	268
363	148
364	132
435	152
436	52
437	52
450	52
452	44
459	44
472	20
555	260
556	192
645	20
646	24
871	20
875	20
73	252
75	64
133	440
134	72
147	100
159	68
191	600
192	68
207	456
217	208
260	152
261	108
265	672
266	164
267	100
305	68
318	152
319	80
335	100
343	120
367	180
368	76
369	64
375	720
376	228
377	100
429	76
433	464
434	156
435	120
449	1000
450	384
451	204
452	100
507	144
508	72
539	212
540	92
555	424
556	184
557	116
73	360
74	32
75	56
91	24
147	160
148	24
149	20
189	28
217	36
221	20
277	20
292	164
293	52
294	28
305	32
333	168
334	56
335	36
373	68
374	24
379	20
419	24
423	128
424	52
425	28
435	40
463	100
464	36
465	24
509	132
510	64
511	44
537	44
538	24
539	16
553	148
554	68
555	52
626	28
627	1000
628	552
629	372
630	132
631	48
643	136
644	76
645	56
646	20
671	40
672	20
70	2
71	32
72	1000
73	88
74	20
75	48
79	44
80	128
81	8
82	12
86	32
87	8
88	8
91	8
92	8
93	8
97	4
98	12
99	8
100	76
101	12
103	16
104	4
108	12
113	4
114	4
126	4
128	36
138	8
141	8
143	4
144	28
145	4
146	24
147	4
148	4
156	4
170	8
171	4
172	28
174	168
175	40
176	4
188	40
190	264
191	72
192	8
196	8
218	24
219	28
71	32
72	4
73	84
74	28
75	28
76	4
79	16
80	84
85	12
86	12
88	8
93	16
99	8
100	8
102	8
103	8
108	12
112	8
114	12
116	1000
117	116
118	60
119	8
128	32
131	8
133	4
142	4
144	152
145	20
146	12
147	120
148	24
149	8
163	8
172	64
190	288
191	104
192	24
204	12
216	8
218	616
219	124
220	48
221	8
232	40
233	8
234	432
235	96
236	40
237	12
67	56
68	84
73	424
75	152
76	44
78	20
79	356
80	1000
81	40
89	40
91	316
92	12
102	440
104	80
108	76
118	56
128	240
130	40
132	104
133	64
134	12
140	28
147	164
152	8
154	48
156	8
162	16
176	828
179	20
202	72
203	76
204	600
205	20
207	60
218	48
219	8
220	748
221	12
245	68
258	132
268	20
309	36
315	12
322	12
450	32
475	8
693	8
728	8
864	8
898	16
72	4
73	16
74	4
75	32
77	4
78	4
79	8
80	64
84	4
86	1000
87	52
88	4
91	4
94	4
100	24
103	12
110	8
114	100
115	4
117	4
128	16
131	12
142	12
143	4
145	4
146	92
147	12
160	12
170	16
171	16
174	4
186	4
188	332
189	40
190	8
202	36
204	368
205	60
206	12
207	8
228	4
230	8
232	40
233	8
234	8
239	4
244	4
248	8
314	8
358	4
68	24
69	16
70	1000
71	44
73	28
74	8
75	28
79	20
80	76
86	20
89	8
94	8
96	12
98	112
99	12
103	48
110	20
111	8
119	12
125	12
126	36
127	12
128	20
139	48
140	64
142	8
144	12
146	160
147	56
148	28
155	16
159	12
160	8
170	20
172	400
173	68
174	16
186	156
187	44
188	576
189	92
190	36
216	44
217	12
235	36
244	8
251	8
253	208
254	20
325	8
69	32
70	32
73	68
74	12
75	20
79	8
80	36
86	1000
87	64
89	48
95	8
99	8
100	12
105	12
109	16
111	8
112	8
114	88
115	20
123	4
124	4
125	8
126	8
127	16
129	4
140	8
142	40
146	328
147	32
148	8
158	20
160	4
171	4
172	12
173	8
180	12
182	8
185	12
186	32
187	8
188	152
189	12
202	16
204	340
205	36
206	8
232	20
233	8
253	52
254	8
72	8
73	88
74	16
75	24
78	2
79	12
80	64
85	4
93	4
96	4
98	2
100	12
101	4
103	2
108	4
128	16
131	16
133	12
144	1000
145	156
146	40
147	92
148	8
149	24
156	24
159	12
172	116
173	12
188	4
191	40
192	8
200	40
202	4
218	324
219	80
220	20
222	4
233	4
244	20
246	704
247	128
248	88
249	12
250	8
260	36
261	8
262	476
263	104
264	56
290	28
70	8
73	144
74	16
75	48
80	32
88	12
103	40
108	8
116	260
117	36
118	12
128	8
131	28
132	1000
133	124
134	36
144	164
145	28
146	52
147	44
156	8
158	8
159	44
160	256
161	24
162	8
163	8
174	20
185	8
188	116
189	20
190	8
204	12
206	144
207	24
219	68
220	32
232	24
233	8
234	548
235	160
236	48
248	36
249	16
250	788
251	136
252	48
278	92
279	8
290	56
67	4
73	92
75	12
80	32
100	12
102	12
106	4
116	4
127	4
131	12
132	4
133	24
142	12
147	84
148	4
157	8
158	1000
159	124
160	24
161	4
170	8
171	4
184	8
186	84
187	12
188	4
191	4
203	4
214	20
218	180
219	28
220	20
232	168
233	32
234	20
259	12
260	488
261	128
262	56
263	8
274	24
275	8
276	308
277	80
278	20
299	12
301	8
304	8
309	4
315	12
73	108
74	8
75	32
80	68
81	16
100	32
117	36
118	8
130	12
143	16
146	36
147	64
148	8
157	16
158	1000
159	228
160	68
161	20
170	28
174	48
184	8
186	68
191	24
202	8
203	16
214	24
218	144
219	84
220	60
232	152
233	60
234	24
248	100
250	28
253	8
255	12
258	24
260	480
261	92
262	84
263	24
264	48
265	12
274	48
276	384
277	108
278	48
292	24
304	16
429	8
73	244
74	24
75	12
98	16
117	444
118	56
119	44
130	292
132	136
142	196
146	680
147	268
148	24
149	36
158	36
170	52
174	924
175	104
176	28
177	32
191	20
202	308
203	36
204	48
214	36
216	44
219	448
220	396
221	64
222	48
223	20
244	52
246	24
248	720
249	200
250	56
262	52
264	1000
265	244
267	48
275	24
276	180
277	128
292	68
294	32
304	20
305	32
306	20
316	24
320	16
66	2
70	4
72	4
73	72
74	4
75	20
80	24
81	8
94	2
98	8
99	4
101	2
106	2
117	2
118	2
126	4
141	12
142	1000
143	124
144	44
145	4
146	4
147	36
148	8
150	2
156	2
159	4
166	4
170	104
171	20
172	8
174	2
175	4
176	4
189	4
191	20
216	212
217	52
218	8
219	2
244	300
245	68
246	32
247	2
248	2
258	84
259	28
260	200
261	56
262	28
73	92
74	8
75	8
80	8
86	12
100	28
102	12
103	4
117	4
130	12
131	8
133	12
144	4
147	76
148	8
158	4
172	16
174	780
175	144
176	48
177	28
178	4
188	8
202	36
203	12
246	20
247	4
248	384
249	120
250	32
251	4
252	4
262	8
263	4
276	1000
277	244
278	144
279	16
280	4
290	28
291	16
292	280
293	80
294	40
295	8
296	4
320	20
321	12
322	8
332	4
73	200
74	8
75	48
80	44
100	56
125	8
128	36
131	20
132	28
133	48
134	12
144	8
146	20
147	40
160	16
162	8
188	28
189	12
191	8
194	40
203	20
204	796
205	192
206	196
207	28
216	28
218	432
219	68
222	12
223	8
231	12
232	120
233	96
248	44
260	68
278	252
279	100
280	24
281	28
304	40
306	1000
307	268
308	128
309	36
320	32
322	532
323	232
324	84
326	12
351	52
73	152
74	12
75	12
79	8
80	40
100	16
101	48
108	8
115	24
117	152
119	24
128	32
132	8
147	32
148	36
160	8
162	12
172	8
191	12
203	28
204	8
205	16
207	12
218	424
219	792
220	168
221	68
222	20
230	20
246	268
247	8
248	44
275	24
277	8
291	304
292	504
293	140
294	68
295	36
320	1000
321	368
322	152
323	68
334	44
335	56
336	636
337	168
338	44
339	8
376	12
73	44
75	32
77	4
79	8
80	12
83	20
84	12
88	8
99	12
102	8
103	28
104	1000
105	56
106	64
108	8
114	4
116	24
121	4
128	20
130	8
131	56
132	36
133	8
134	4
146	192
147	20
148	8
156	12
158	8
160	20
162	4
173	24
174	140
176	28
178	128
179	36
180	28
199	4
204	4
205	72
206	64
207	12
208	28
220	8
221	140
222	500
223	132
224	56
250	36
262	8
73	232
75	52
80	76
88	12
116	84
117	56
130	100
131	52
133	16
144	32
145	28
146	152
147	64
157	8
160	976
161	200
162	68
171	64
172	16
175	16
188	68
189	16
190	20
202	60
203	16
205	40
206	8
207	16
220	20
222	16
234	168
235	48
244	56
245	124
246	12
247	32
260	8
262	380
263	52
264	36
266	32
278	1000
279	240
280	108
289	40
306	188
307	24
309	8
318	20
411	16
68	116
69	16
71	8
72	4
73	44
75	28
80	12
101	4
103	12
117	8
129	4
131	4
133	4
142	12
147	32
155	8
157	4
158	832
159	148
160	52
170	12
171	4
184	8
186	24
187	4
200	12
214	16
222	4
232	4
258	24
260	876
261	172
262	72
263	16
273	8
274	144
275	52
276	1000
277	236
278	108
279	20
301	4
302	12
304	196
305	56
306	24
307	8
316	12
317	4
493	8
73	140
75	60
80	20
89	12
91	32
100	28
102	16
103	16
128	16
147	24
148	20
156	16
174	124
186	16
202	196
203	16
205	68
206	24
218	328
219	76
220	76
222	28
230	28
232	1000
233	176
234	88
235	52
245	12
258	28
273	12
274	44
288	20
291	12
292	40
293	20
302	12
304	28
306	148
307	36
334	640
335	240
336	88
337	32
347	12
349	40
350	728
351	180
352	52
353	28
517	24
73	48
99	16
101	28
104	28
126	16
128	104
131	28
147	72
148	36
156	256
157	84
174	24
176	920
177	68
178	72
188	32
190	24
198	20
202	72
204	148
205	52
206	48
218	76
219	132
220	84
231	96
233	104
235	20
246	156
247	16
250	388
251	100
252	40
253	28
258	192
274	2
277	32
278	576
279	100
280	68
281	16
293	176
294	1000
295	384
296	100
300	48
302	136
303	56
315	16
346	52
70	28
73	188
75	28
79	40
80	52
81	12
83	40
93	12
98	12
128	32
133	68
147	40
156	848
157	72
158	72
159	16
161	68
186	36
189	12
202	12
204	12
218	12
230	1000
231	48
232	256
233	12
234	64
244	28
258	744
259	216
260	148
272	32
274	888
275	312
276	32
277	60
290	56
300	12
301	8
302	276
303	36
304	64
307	64
314	80
334	120
335	16
350	40
351	16
376	24
536	20
71	2
73	88
74	4
75	12
80	4
81	4
83	16
86	4
96	4
100	2
112	4
132	8
133	4
140	64
141	4
147	20
148	8
155	2
156	2
157	4
170	4
172	2
175	24
186	8
188	4
219	2
228	8
230	1000
231	268
232	80
233	8
246	4
258	24
259	12
288	12
304	164
305	32
306	40
332	592
333	132
334	72
335	4
336	2
346	68
347	28
348	316
349	92
350	28
351	4
376	12
68	8
73	40
75	20
80	20
84	12
86	8
87	8
131	4
133	8
142	4
145	20
147	44
148	16
156	28
158	20
159	24
161	4
171	4
172	4
174	340
175	92
176	20
187	32
188	8
230	108
231	40
232	8
245	12
246	40
248	4
257	8
259	12
274	12
275	8
276	44
277	8
294	4
304	1000
305	344
306	132
307	8
318	28
319	44
320	244
321	60
322	40
323	16
343	4
348	24
351	8
70	36
72	32
73	156
75	60
84	448
87	24
88	12
89	12
98	28
101	24
102	32
112	56
113	12
114	36
120	12
127	44
129	16
130	28
133	128
143	80
144	104
148	12
158	36
159	52
161	32
168	12
175	88
186	300
187	116
188	80
198	12
201	44
202	380
203	204
204	68
205	32
214	60
218	32
230	136
249	28
250	28
274	576
275	64
276	1000
277	24
292	968
293	72
294	76
324	16
349	56
71	4
73	60
74	12
75	32
80	16
83	4
91	24
93	32
117	12
118	4
119	4
120	1000
121	112
122	8
130	32
133	8
134	24
135	4
146	284
147	28
148	192
149	40
150	4
160	12
176	12
177	4
185	4
192	8
193	4
194	8
195	8
203	4
204	12
205	4
220	12
221	20
222	312
223	64
224	20
225	8
236	8
238	512
239	124
240	40
266	40
267	4
278	16
295	8
311	4
333	8
69	16
73	312
79	52
80	112
83	80
85	40
90	16
100	44
102	48
107	32
109	40
115	28
116	32
131	56
132	56
133	12
142	36
147	72
148	16
151	12
169	52
174	16
177	28
186	20
216	48
218	608
219	152
220	1000
221	300
222	104
232	84
233	40
234	40
237	16
248	80
249	12
268	28
278	12
294	360
296	136
322	920
323	384
324	248
325	24
336	24
338	672
339	44
340	144
341	76
366	80
73	44
75	36
77	40
79	52
80	204
84	24
91	32
99	24
100	72
106	24
108	52
113	28
114	28
128	100
147	144
148	24
174	164
188	64
203	72
204	32
216	40
226	40
230	212
231	28
232	108
233	36
246	1000
247	156
258	72
260	40
274	436
275	72
276	132
278	112
301	40
302	96
303	24
305	104
320	108
321	52
346	48
348	756
349	332
350	156
362	44
363	296
364	592
365	196
366	124
373	28
70	12
73	124
74	32
75	20
80	56
86	8
89	12
91	8
92	16
100	32
128	24
129	4
146	16
147	52
149	8
192	216
193	44
201	24
204	20
205	24
216	16
218	1000
219	208
220	204
221	40
222	24
224	4
232	8
248	52
249	32
266	156
267	8
268	8
276	16
280	12
292	40
293	4
294	436
295	160
296	64
297	16
300	8
310	528
311	168
312	44
313	12
338	28
339	12
350	8
351	12
70	540
71	116
73	152
75	32
79	140
80	40
83	8
84	20
98	28
99	36
103	240
127	24
131	52
133	8
155	40
168	12
169	28
172	136
175	64
179	40
183	72
184	604
185	272
186	224
188	1000
189	476
190	64
205	8
212	92
216	216
217	88
246	36
256	20
258	20
285	128
286	324
287	264
288	212
293	12
301	48
302	984
303	108
304	348
423	12
440	12
482	12
564	8
666	12
935	8
958	12
70	40
73	120
74	32
75	40
80	20
97	12
128	20
129	12
130	24
142	140
143	28
146	48
147	24
160	12
162	28
169	76
170	28
172	40
174	684
175	152
176	48
186	212
187	28
188	340
189	56
190	20
201	12
216	188
217	52
218	24
243	108
244	824
245	176
246	88
258	36
259	24
271	20
275	28
333	496
334	156
335	56
336	40
337	12
347	36
348	1000
349	884
350	244
351	120
352	40
377	24
71	60
72	20
73	180
75	40
79	12
80	148
81	24
99	12
100	32
101	44
103	56
128	24
142	728
143	28
147	36
148	28
169	36
174	204
175	24
186	16
189	44
200	144
215	44
241	32
259	68
283	32
299	12
303	36
304	28
305	16
331	16
332	52
359	28
361	84
363	20
377	52
403	52
405	1000
406	420
407	296
408	40
409	36
419	172
420	520
421	340
422	244
423	48
451	36
507	32
568	40
73	120
74	36
75	28
84	76
86	16
100	36
128	20
142	20
144	20
147	16
156	156
157	28
162	16
174	932
175	148
176	80
184	32
189	16
200	164
201	44
202	88
216	32
230	92
242	16
245	24
257	32
258	520
259	44
261	20
272	24
287	32
289	112
290	44
347	716
348	264
349	128
350	36
357	28
361	100
362	428
363	1000
364	344
365	124
366	20
374	16
377	20
391	192
392	36
393	20
403	24
73	132
74	24
75	32
80	12
90	8
91	8
96	8
108	16
116	12
119	16
120	16
128	12
146	40
165	8
177	12
179	900
180	320
181	52
182	16
208	276
209	52
210	8
218	36
219	176
220	56
221	16
222	16
236	108
237	20
264	8
265	12
266	20
292	24
308	24
309	136
310	764
311	220
312	92
313	24
324	32
325	120
326	1000
327	412
328	164
329	16
337	28
354	224
355	40
356	44
366	16
70	52
73	92
75	60
83	100
115	108
116	60
147	24
156	32
160	52
172	52
202	64
215	56
224	452
230	28
232	24
258	48
264	1000
265	72
285	56
297	24
300	36
304	400
305	92
306	32
313	28
317	108
318	160
320	444
326	28
327	28
329	124
330	28
335	240
336	692
337	116
338	96
341	40
349	24
365	28
384	56
389	68
391	80
419	308
420	192
422	56
429	56
435	148
436	68
467	24
491	100
66	44
71	60
73	332
77	76
80	1000
85	52
101	40
105	36
109	52
113	40
115	40
131	180
147	136
194	76
203	268
210	48
215	44
219	632
221	128
223	128
265	40
288	40
298	40
303	44
313	320
324	44
336	416
382	808
383	272
398	616
399	44
458	96
483	40
504	40
518	68
519	44
527	60
540	44
572	52
574	40
580	48
583	60
705	40
710	44
730	40
761	44
797	40
823	40
881	40
934	84
73	176
75	12
77	16
80	208
86	16
108	52
130	108
132	12
154	32
157	24
158	40
174	32
185	32
193	24
200	32
201	40
202	1000
203	308
204	156
205	52
218	20
219	80
220	64
228	16
231	104
232	140
244	20
260	68
261	36
277	48
287	16
296	16
303	24
316	32
332	792
333	596
334	228
335	88
347	36
348	356
349	668
350	200
351	92
352	56
354	20
360	128
361	88
377	168
378	36
387	56
69	108
73	432
74	60
75	416
91	180
95	64
107	96
147	208
167	60
177	72
179	76
195	64
219	164
221	88
247	108
257	172
258	80
259	72
283	92
285	280
293	92
309	124
331	260
332	64
333	68
345	116
347	100
349	64
359	232
360	64
361	108
375	380
376	100
377	80
391	124
419	168
449	1000
450	408
451	220
463	64
464	60
465	204
466	108
609	144
683	384
684	252
685	156
699	232
700	104
701	68
69	100
73	1000
74	112
75	624
91	268
103	108
119	120
147	388
149	148
257	216
283	156
285	292
307	628
308	172
309	136
331	228
335	96
345	204
347	124
359	240
361	104
373	108
375	360
376	120
377	100
381	352
382	116
383	96
396	96
397	384
398	144
419	340
420	136
421	112
425	96
449	992
450	388
451	208
463	120
465	264
466	116
697	136
771	928
772	656
773	444
774	188
786	192
787	540
788	356
789	220
69	64
71	52
73	400
75	152
91	84
103	52
133	784
134	76
147	132
159	88
191	520
192	100
207	824
208	140
209	72
217	156
233	56
260	196
261	132
265	752
266	184
267	104
309	80
318	132
319	76
335	136
343	340
344	108
345	140
367	176
368	60
375	484
376	156
377	88
433	300
434	120
435	80
449	1000
450	388
451	192
452	60
507	224
508	104
509	60
539	280
540	124
541	80
555	476
556	224
557	124
73	16
75	84
88	60
90	88
101	72
149	20
150	76
204	48
219	32
243	76
272	40
291	76
292	28
299	444
300	28
315	36
316	32
333	112
355	12
357	72
358	52
373	44
387	192
389	20
423	16
424	16
442	28
453	12
458	8
463	8
472	60
502	12
561	32
562	12
563	148
594	8
603	12
620	40
664	12
687	8
761	12
766	92
768	72
769	12
781	1000
782	952
783	124
784	100
785	112
998	24
73	324
74	36
75	108
77	60
91	32
117	20
129	12
147	56
217	16
245	20
273	116
274	28
275	16
305	12
319	16
347	52
348	16
363	276
364	88
365	44
375	168
376	48
377	28
390	12
391	348
392	120
393	60
394	12
419	16
437	32
438	12
464	20
465	1000
466	384
467	208
468	56
469	16
480	32
481	396
482	156
483	92
484	24
509	184
510	80
511	40
512	12
521	72
522	32
523	12
553	12
73	172
74	16
75	40
77	16
147	48
217	16
239	12
292	100
293	28
294	16
305	24
313	72
314	24
327	108
328	44
329	136
330	40
333	84
334	28
335	16
357	28
423	72
424	28
425	20
435	32
436	12
447	16
509	52
510	24
511	16
537	36
538	16
553	172
554	84
555	52
556	16
626	40
627	1000
628	556
629	348
630	128
631	44
643	108
644	64
645	36
646	16
671	36
672	24
673	12
683	16
73	400
74	32
75	120
81	28
91	28
103	28
117	28
129	64
147	88
169	108
191	56
217	44
219	36
220	60
243	48
257	36
259	168
260	32
271	36
287	128
288	28
315	108
316	28
317	36
319	136
320	40
331	32
333	420
334	124
335	84
349	40
361	172
362	52
363	28
377	80
423	72
424	28
451	732
452	296
453	152
454	44
466	136
467	1000
468	416
469	220
470	56
495	68
496	28
507	56
539	36
73	296
74	24
75	56
103	28
117	24
129	20
147	80
189	20
191	36
204	28
205	56
217	40
245	20
292	136
293	36
294	20
305	40
307	28
319	92
320	32
321	32
333	60
334	20
359	284
360	96
361	48
423	88
424	36
425	20
433	116
434	44
435	40
449	116
450	44
451	32
523	116
524	56
525	44
539	180
540	84
541	52
612	28
613	1000
614	544
615	352
616	124
617	44
629	112
630	60
631	36
69	12
70	4
71	12
72	4
73	52
74	16
75	28
80	12
83	8
85	4
90	48
91	12
97	4
99	4
100	4
111	4
115	28
116	16
117	8
118	4
130	4
131	4
133	4
146	12
147	88
148	12
149	8
159	4
171	4
173	12
187	4
188	12
189	1000
190	176
191	80
192	8
203	4
204	32
205	508
206	96
207	44
208	4
217	8
233	140
234	28
235	12
245	56
246	12
247	4
261	12
65	4
73	92
74	8
75	4
79	4
86	24
91	36
92	2
93	12
100	16
102	12
105	20
116	2
117	4
121	2
130	8
131	4
133	12
144	4
146	2
149	2
158	2
160	4
162	2
172	2
173	8
174	1000
175	180
176	80
177	8
178	8
188	24
189	4
190	4
221	2
249	8
250	916
251	220
252	76
253	12
264	48
265	12
266	180
267	52
268	16
269	4
294	24
295	4
296	2
306	4
73	152
74	8
75	4
86	24
100	12
102	8
117	4
130	8
131	4
146	4
158	4
160	4
164	4
165	4
173	8
174	836
175	148
176	60
177	8
179	12
180	4
188	28
189	4
193	60
194	8
219	4
221	64
222	16
223	4
233	4
266	8
282	4
337	4
338	1000
339	328
340	148
341	32
342	4
352	44
353	20
354	444
355	160
356	72
357	12
358	4
382	76
383	28
384	12
394	12
395	4
68	52
69	56
71	124
73	200
75	200
81	108
82	48
83	152
91	84
97	56
119	52
125	244
131	52
133	52
144	60
145	68
149	48
159	68
169	44
179	48
199	44
211	72
219	52
221	48
251	56
253	128
255	60
281	44
282	48
297	56
337	100
338	48
341	80
363	328
364	104
365	68
377	272
378	228
379	968
380	404
381	180
407	44
453	1000
454	344
455	128
467	456
468	848
469	736
470	264
471	80
67	8
71	8
73	220
74	20
75	52
77	12
91	16
133	8
147	84
148	12
149	16
163	12
211	56
212	8
215	20
229	64
230	12
231	8
257	8
285	40
286	8
287	12
300	16
301	1000
302	240
303	120
304	20
346	92
347	40
348	16
375	824
376	264
377	148
378	28
379	8
390	20
391	304
392	100
393	48
394	8
419	228
420	72
421	36
422	8
431	68
432	20
433	12
463	28
464	12
465	8
73	156
74	12
75	36
86	24
89	12
91	12
100	16
102	256
103	24
104	8
114	8
117	4
130	20
147	8
156	36
158	8
160	8
172	104
173	88
174	1000
175	180
176	76
177	12
190	4
199	8
200	16
212	8
213	8
244	100
245	20
246	12
329	40
330	36
331	20
332	8
344	4
345	116
346	36
347	20
360	8
361	760
362	248
363	124
364	24
365	4
375	20
376	28
377	96
378	32
379	12
73	308
74	28
75	128
86	72
87	12
89	36
91	44
100	36
102	128
103	28
129	16
146	28
147	20
154	12
156	72
160	24
172	160
173	32
174	896
175	156
176	52
177	12
190	600
191	112
192	52
200	36
212	16
257	20
287	76
288	16
331	24
345	256
346	88
347	28
360	12
361	1000
362	308
363	156
364	44
365	20
375	48
376	84
377	928
378	280
379	128
380	40
405	124
406	52
417	48
419	16
73	120
74	12
75	16
86	20
100	12
101	4
102	128
103	16
104	4
117	16
119	4
130	20
131	4
133	16
146	4
147	28
148	4
160	8
161	4
172	4
173	8
174	824
175	144
176	68
177	8
202	4
204	4
205	392
206	76
207	32
216	16
218	16
232	8
234	4
248	248
249	60
250	32
251	4
289	8
290	1000
291	280
292	136
293	24
294	4
304	20
305	8
306	104
307	28
308	12
378	4
69	36
70	8
71	28
73	96
74	12
75	68
77	28
83	20
91	20
95	28
98	8
99	8
129	8
133	12
147	8
178	8
190	12
234	16
244	8
248	8
257	8
273	8
279	304
280	84
281	12
282	8
284	8
295	8
325	16
338	52
339	12
352	8
353	828
354	236
355	128
356	28
357	12
367	16
368	492
369	1000
370	344
371	112
372	24
397	212
398	64
399	32
409	36
410	8
411	8
722	8
73	560
74	48
75	128
91	48
147	220
160	132
174	48
189	48
191	36
204	40
217	52
246	56
277	56
305	72
314	100
320	40
321	224
322	52
333	296
334	92
335	56
345	44
347	36
364	80
395	156
396	44
404	136
405	40
423	256
424	96
425	64
435	356
436	144
437	84
451	80
478	184
479	72
480	44
494	180
495	88
536	40
540	40
568	1000
569	472
570	272
571	84
584	168
585	84
586	44
612	52
73	660
74	68
75	112
91	88
103	64
147	228
160	100
189	56
235	64
245	80
246	64
277	60
292	140
299	100
313	68
321	132
322	68
333	372
334	120
335	56
344	148
345	68
360	132
361	128
377	208
378	76
404	124
423	284
424	132
425	60
435	108
451	280
452	96
453	68
478	200
479	68
494	184
495	92
536	152
537	80
552	76
568	1000
569	464
570	252
571	108
584	224
585	124
586	68
612	80
613	60
73	156
74	12
75	16
89	4
91	4
117	8
137	4
149	4
151	4
180	4
181	32
182	4
193	12
194	8
207	4
209	44
210	8
211	4
221	4
223	148
224	28
225	12
253	16
267	16
268	4
269	220
270	52
271	20
282	20
283	8
296	4
297	1000
298	240
299	92
300	16
309	36
310	12
311	12
312	248
313	768
314	208
315	80
316	16
341	144
342	40
343	12
353	24
354	8
385	8
609	8
73	124
74	12
75	24
77	4
91	4
115	4
117	4
139	4
147	8
175	4
177	4
179	8
191	8
192	4
203	4
205	8
217	4
219	224
220	40
221	12
233	4
249	24
250	4
265	40
266	8
267	4
293	628
294	160
295	64
296	8
305	16
306	4
307	8
308	260
309	1000
310	272
311	104
312	20
335	4
337	212
338	64
339	20
340	4
349	40
350	12
351	4
381	16
382	4
601	8
602	4
73	728
74	64
75	176
91	92
103	136
133	92
147	332
149	72
160	396
189	72
191	268
204	88
205	220
217	180
262	168
271	64
307	216
312	164
319	1000
320	300
321	156
330	136
331	164
361	140
364	208
365	64
393	148
402	312
403	116
404	76
421	272
422	104
433	148
435	152
466	108
476	124
492	424
493	180
494	144
523	168
524	76
566	368
567	176
568	112
656	624
657	356
658	240
659	80
672	136
673	64
73	864
74	128
75	272
89	100
91	236
103	316
117	132
133	412
147	560
148	100
160	296
163	148
165	152
191	356
205	236
217	272
218	120
235	380
236	104
240	100
261	116
288	252
305	100
307	296
308	124
312	96
319	684
320	208
321	172
327	148
330	128
362	120
375	116
376	176
386	372
387	124
393	112
402	1000
403	368
404	232
421	168
422	132
476	432
477	176
478	120
492	244
566	392
567	144
568	120
672	192
71	12
73	216
74	20
75	28
101	8
102	8
103	36
117	28
133	32
147	192
148	24
149	16
163	44
164	8
175	16
189	352
190	68
191	40
204	8
205	596
206	116
207	52
217	16
219	8
263	20
265	16
277	8
279	48
280	12
292	84
293	24
294	12
307	1000
308	284
309	132
310	28
321	20
322	32
323	312
324	88
325	44
326	8
351	136
352	44
353	20
363	64
364	20
365	8
395	24
396	8
69	60
71	64
73	488
74	44
75	108
91	52
147	176
160	148
174	36
189	56
191	40
217	44
246	44
277	40
305	52
314	180
315	36
321	136
322	36
333	260
334	84
335	48
345	36
364	124
365	44
388	40
395	92
396	40
404	156
405	52
423	184
424	72
435	244
436	100
437	60
451	68
478	100
479	44
494	264
495	100
496	56
525	56
540	60
568	1000
569	476
570	276
571	88
584	100
585	48
612	52
73	560
74	52
75	120
103	48
105	48
133	68
147	260
160	156
214	48
292	160
294	56
314	56
321	56
333	372
334	140
344	76
345	60
347	56
361	64
377	140
404	252
405	100
406	64
423	280
424	140
425	52
435	68
450	84
451	164
452	88
478	144
479	52
494	360
495	164
496	80
536	256
537	112
538	88
552	124
553	52
554	56
568	1000
569	428
570	264
571	88
572	48
584	144
585	88
586	56
612	84
69	4
71	4
72	4
73	144
74	8
75	16
77	4
83	4
85	4
91	8
147	12
191	12
192	4
219	56
220	8
249	4
293	12
307	156
308	44
309	20
310	4
337	4
353	12
380	8
381	864
382	284
383	140
384	36
385	4
393	4
395	8
396	420
397	1000
398	368
399	156
400	36
401	8
411	4
423	4
424	4
425	232
426	92
427	40
428	8
437	44
438	16
439	8
469	16
470	4
777	4
